*#######################################################################
*
* Copyright 2023 IHP PDK Authors
* 
* Licensed under the Apache License, Version 2.0 (the "License");
* you may not use this file except in compliance with the License.
* You may obtain a copy of the License at
* 
*    https://www.apache.org/licenses/LICENSE-2.0
* 
* Unless required by applicable law or agreed to in writing, software
*distributed under the License is distributed on an "AS IS" BASIS,
* WITHOUT WARRANTIES OR CONDITIONS OF ANY KIND, either express or implied.
* See the License for the specific language governing permissions and
* limitations under the License.
*
*#######################################################################

.MODEL res_rsil R (DEFW=0.5e-6 RSH=rsh_rsil TC1=3100e-6 TC2=0.3e-6 KF=2.812e-12 AF=1.607 EF=1.267)

.MODEL res_rhigh R (DEFW=1e-6 RSH=rsh_rhigh TC1=-2300e-6 TC2=2.1e-6 KF=5.205e-10 AF=1.935 EF=0.9086)

.MODEL res_rppd R (DEFW=0.5e-6 RSH=rsh_rppd TC1=170e-6 TC2=0.4e-6 KF=4.601e-11 AF=1.886 EF=0.9963)
