************************************************************************
* 
* Copyright 2023 IHP PDK Authors
* 
* Licensed under the Apache License, Version 2.0 (the "License");
* you may not use this file except in compliance with the License.
* You may obtain a copy of the License at
* 
*    https://www.apache.org/licenses/LICENSE-2.0
* 
* Unless required by applicable law or agreed to in writing, software
* distributed under the License is distributed on an "AS IS" BASIS,
* WITHOUT WARRANTIES OR CONDITIONS OF ANY KIND, either express or implied.
* See the License for the specific language governing permissions and
* limitations under the License.
* 
************************************************************************

.SUBCKT RM_IHPSG13_512x64_c2_1P_BITKIT_CORNER NW PW VDD VSS
.ENDS
.SUBCKT RM_IHPSG13_512x64_c2_1P_BITKIT_16x2_CORNER VDD_CORE VSS
XI16 VDD_CORE VSS VDD_CORE VSS / 
+ RM_IHPSG13_512x64_c2_1P_BITKIT_CORNER
.ENDS
.SUBCKT RM_IHPSG13_512x64_c2_1P_BITKIT_EDGE_LR LWL NW PW VDD VSS
MN1 VSS LWL VSS VSS sg13_lv_nmos m=1 w=300.0n l=130.00n ng=1 nrd=0 nrs=0
MN0 VSS net9 VSS VSS sg13_lv_nmos m=1 w=300.0n l=130.00n ng=1 nrd=0 nrs=0
.ENDS
.SUBCKT RM_IHPSG13_512x64_c2_1P_BITKIT_16x2_EDGE_LR A_WL<15> A_WL<14> A_WL<13> A_WL<12> 
+ A_WL<11> A_WL<10> A_WL<9> A_WL<8> A_WL<7> A_WL<6> A_WL<5> A_WL<4> A_WL<3> 
+ A_WL<2> A_WL<1> A_WL<0> VDD_CORE VSS
XI0<15> A_WL<15> VDD_CORE VSS VDD_CORE VSS / 
+ RM_IHPSG13_512x64_c2_1P_BITKIT_EDGE_LR
XI0<14> A_WL<14> VDD_CORE VSS VDD_CORE VSS / 
+ RM_IHPSG13_512x64_c2_1P_BITKIT_EDGE_LR
XI0<13> A_WL<13> VDD_CORE VSS VDD_CORE VSS / 
+ RM_IHPSG13_512x64_c2_1P_BITKIT_EDGE_LR
XI0<12> A_WL<12> VDD_CORE VSS VDD_CORE VSS / 
+ RM_IHPSG13_512x64_c2_1P_BITKIT_EDGE_LR
XI0<11> A_WL<11> VDD_CORE VSS VDD_CORE VSS / 
+ RM_IHPSG13_512x64_c2_1P_BITKIT_EDGE_LR
XI0<10> A_WL<10> VDD_CORE VSS VDD_CORE VSS / 
+ RM_IHPSG13_512x64_c2_1P_BITKIT_EDGE_LR
XI0<9> A_WL<9> VDD_CORE VSS VDD_CORE VSS / 
+ RM_IHPSG13_512x64_c2_1P_BITKIT_EDGE_LR
XI0<8> A_WL<8> VDD_CORE VSS VDD_CORE VSS / 
+ RM_IHPSG13_512x64_c2_1P_BITKIT_EDGE_LR
XI0<7> A_WL<7> VDD_CORE VSS VDD_CORE VSS / 
+ RM_IHPSG13_512x64_c2_1P_BITKIT_EDGE_LR
XI0<6> A_WL<6> VDD_CORE VSS VDD_CORE VSS / 
+ RM_IHPSG13_512x64_c2_1P_BITKIT_EDGE_LR
XI0<5> A_WL<5> VDD_CORE VSS VDD_CORE VSS / 
+ RM_IHPSG13_512x64_c2_1P_BITKIT_EDGE_LR
XI0<4> A_WL<4> VDD_CORE VSS VDD_CORE VSS / 
+ RM_IHPSG13_512x64_c2_1P_BITKIT_EDGE_LR
XI0<3> A_WL<3> VDD_CORE VSS VDD_CORE VSS / 
+ RM_IHPSG13_512x64_c2_1P_BITKIT_EDGE_LR
XI0<2> A_WL<2> VDD_CORE VSS VDD_CORE VSS / 
+ RM_IHPSG13_512x64_c2_1P_BITKIT_EDGE_LR
XI0<1> A_WL<1> VDD_CORE VSS VDD_CORE VSS / 
+ RM_IHPSG13_512x64_c2_1P_BITKIT_EDGE_LR
XI0<0> A_WL<0> VDD_CORE VSS VDD_CORE VSS / 
+ RM_IHPSG13_512x64_c2_1P_BITKIT_EDGE_LR
.ENDS
.SUBCKT RM_IHPSG13_512x64_c2_1P_BITKIT_CELL BLC_BOT BLC_TOP BLT_BOT BLT_TOP LWL NW PW 
+ RWL VDD VSS
MN0 NC NT VSS PW sg13_lv_nmos m=1 w=300.0n l=130.00n ng=1 nrd=0 nrs=0
MN1 NT NC VSS PW sg13_lv_nmos m=1 w=300.0n l=130.00n ng=1 nrd=0 nrs=0
MN3 NC RWL BLC_TOP PW sg13_lv_nmos m=1 w=300.0n l=130.00n ng=1 nrd=0 nrs=0
MN2 BLT_BOT LWL NT PW sg13_lv_nmos m=1 w=300.0n l=130.00n ng=1 nrd=0 nrs=0
MP1 NT NC VDD NW sg13_lv_pmos m=1 w=150.00n l=130.00n ng=1 nrd=0 nrs=0
MP0 NC NT VDD NW sg13_lv_pmos m=1 w=150.00n l=130.00n ng=1 nrd=0 nrs=0
R1 BLC_BOT BLC_TOP lvsres w=2.6e-07 l=6e-07
R0 BLT_BOT BLT_TOP lvsres w=2.6e-07 l=6e-07
R2 RWL LWL lvsres w=2.6e-07 l=6e-07
.ENDS
.SUBCKT RM_IHPSG13_512x64_c2_1P_BITKIT_16x2_SRAM A_BLC_BOT<1> A_BLC_BOT<0> A_BLC_TOP<1> 
+ A_BLC_TOP<0> A_BLT_BOT<1> A_BLT_BOT<0> A_BLT_TOP<1> A_BLT_TOP<0> A_LWL<15> 
+ A_LWL<14> A_LWL<13> A_LWL<12> A_LWL<11> A_LWL<10> A_LWL<9> A_LWL<8> A_LWL<7> 
+ A_LWL<6> A_LWL<5> A_LWL<4> A_LWL<3> A_LWL<2> A_LWL<1> A_LWL<0> A_RWL<15> 
+ A_RWL<14> A_RWL<13> A_RWL<12> A_RWL<11> A_RWL<10> A_RWL<9> A_RWL<8> A_RWL<7> 
+ A_RWL<6> A_RWL<5> A_RWL<4> A_RWL<3> A_RWL<2> A_RWL<1> A_RWL<0> VDD_CORE 
+ VSS
XCELL<31> A_BLC_TOP<1> A_RBLC<15> A_BLT_TOP<1> A_RBLT<15> A_RWL<15> 
+ VDD_CORE VSS A_XWL<15> VDD_CORE VSS / 
+ RM_IHPSG13_512x64_c2_1P_BITKIT_CELL
XCELL<30> A_RBLC<14> A_RBLC<15> A_RBLT<14> A_RBLT<15> A_RWL<14> VDD_CORE 
+ VSS A_XWL<14> VDD_CORE VSS / RM_IHPSG13_512x64_c2_1P_BITKIT_CELL
XCELL<29> A_RBLC<14> A_RBLC<13> A_RBLT<14> A_RBLT<13> A_RWL<13> VDD_CORE 
+ VSS A_XWL<13> VDD_CORE VSS / RM_IHPSG13_512x64_c2_1P_BITKIT_CELL
XCELL<28> A_RBLC<12> A_RBLC<13> A_RBLT<12> A_RBLT<13> A_RWL<12> VDD_CORE 
+ VSS A_XWL<12> VDD_CORE VSS / RM_IHPSG13_512x64_c2_1P_BITKIT_CELL
XCELL<27> A_RBLC<12> A_RBLC<11> A_RBLT<12> A_RBLT<11> A_RWL<11> VDD_CORE 
+ VSS A_XWL<11> VDD_CORE VSS / RM_IHPSG13_512x64_c2_1P_BITKIT_CELL
XCELL<26> A_RBLC<10> A_RBLC<11> A_RBLT<10> A_RBLT<11> A_RWL<10> VDD_CORE 
+ VSS A_XWL<10> VDD_CORE VSS / RM_IHPSG13_512x64_c2_1P_BITKIT_CELL
XCELL<25> A_RBLC<10> A_RBLC<9> A_RBLT<10> A_RBLT<9> A_RWL<9> VDD_CORE 
+ VSS A_XWL<9> VDD_CORE VSS / RM_IHPSG13_512x64_c2_1P_BITKIT_CELL
XCELL<24> A_RBLC<8> A_RBLC<9> A_RBLT<8> A_RBLT<9> A_RWL<8> VDD_CORE 
+ VSS A_XWL<8> VDD_CORE VSS / RM_IHPSG13_512x64_c2_1P_BITKIT_CELL
XCELL<23> A_RBLC<8> A_RBLC<7> A_RBLT<8> A_RBLT<7> A_RWL<7> VDD_CORE 
+ VSS A_XWL<7> VDD_CORE VSS / RM_IHPSG13_512x64_c2_1P_BITKIT_CELL
XCELL<22> A_RBLC<6> A_RBLC<7> A_RBLT<6> A_RBLT<7> A_RWL<6> VDD_CORE 
+ VSS A_XWL<6> VDD_CORE VSS / RM_IHPSG13_512x64_c2_1P_BITKIT_CELL
XCELL<21> A_RBLC<6> A_RBLC<5> A_RBLT<6> A_RBLT<5> A_RWL<5> VDD_CORE 
+ VSS A_XWL<5> VDD_CORE VSS / RM_IHPSG13_512x64_c2_1P_BITKIT_CELL
XCELL<20> A_RBLC<4> A_RBLC<5> A_RBLT<4> A_RBLT<5> A_RWL<4> VDD_CORE 
+ VSS A_XWL<4> VDD_CORE VSS / RM_IHPSG13_512x64_c2_1P_BITKIT_CELL
XCELL<19> A_RBLC<4> A_RBLC<3> A_RBLT<4> A_RBLT<3> A_RWL<3> VDD_CORE 
+ VSS A_XWL<3> VDD_CORE VSS / RM_IHPSG13_512x64_c2_1P_BITKIT_CELL
XCELL<18> A_RBLC<2> A_RBLC<3> A_RBLT<2> A_RBLT<3> A_RWL<2> VDD_CORE 
+ VSS A_XWL<2> VDD_CORE VSS / RM_IHPSG13_512x64_c2_1P_BITKIT_CELL
XCELL<17> A_RBLC<2> A_RBLC<1> A_RBLT<2> A_RBLT<1> A_RWL<1> VDD_CORE 
+ VSS A_XWL<1> VDD_CORE VSS / RM_IHPSG13_512x64_c2_1P_BITKIT_CELL
XCELL<16> A_BLC_BOT<1> A_RBLC<1> A_BLT_BOT<1> A_RBLT<1> A_RWL<0> VDD_CORE 
+ VSS A_XWL<0> VDD_CORE VSS / RM_IHPSG13_512x64_c2_1P_BITKIT_CELL
XCELL<15> A_BLC_TOP<0> A_LBLC<15> A_BLT_TOP<0> A_LBLT<15> A_LWL<15> 
+ VDD_CORE VSS A_XWL<15> VDD_CORE VSS / 
+ RM_IHPSG13_512x64_c2_1P_BITKIT_CELL
XCELL<14> A_LBLC<14> A_LBLC<15> A_LBLT<14> A_LBLT<15> A_LWL<14> VDD_CORE 
+ VSS A_XWL<14> VDD_CORE VSS / RM_IHPSG13_512x64_c2_1P_BITKIT_CELL
XCELL<13> A_LBLC<14> A_LBLC<13> A_LBLT<14> A_LBLT<13> A_LWL<13> VDD_CORE 
+ VSS A_XWL<13> VDD_CORE VSS / RM_IHPSG13_512x64_c2_1P_BITKIT_CELL
XCELL<12> A_LBLC<12> A_LBLC<13> A_LBLT<12> A_LBLT<13> A_LWL<12> VDD_CORE 
+ VSS A_XWL<12> VDD_CORE VSS / RM_IHPSG13_512x64_c2_1P_BITKIT_CELL
XCELL<11> A_LBLC<12> A_LBLC<11> A_LBLT<12> A_LBLT<11> A_LWL<11> VDD_CORE 
+ VSS A_XWL<11> VDD_CORE VSS / RM_IHPSG13_512x64_c2_1P_BITKIT_CELL
XCELL<10> A_LBLC<10> A_LBLC<11> A_LBLT<10> A_LBLT<11> A_LWL<10> VDD_CORE 
+ VSS A_XWL<10> VDD_CORE VSS / RM_IHPSG13_512x64_c2_1P_BITKIT_CELL
XCELL<9> A_LBLC<10> A_LBLC<9> A_LBLT<10> A_LBLT<9> A_LWL<9> VDD_CORE 
+ VSS A_XWL<9> VDD_CORE VSS / RM_IHPSG13_512x64_c2_1P_BITKIT_CELL
XCELL<8> A_LBLC<8> A_LBLC<9> A_LBLT<8> A_LBLT<9> A_LWL<8> VDD_CORE 
+ VSS A_XWL<8> VDD_CORE VSS / RM_IHPSG13_512x64_c2_1P_BITKIT_CELL
XCELL<7> A_LBLC<8> A_LBLC<7> A_LBLT<8> A_LBLT<7> A_LWL<7> VDD_CORE 
+ VSS A_XWL<7> VDD_CORE VSS / RM_IHPSG13_512x64_c2_1P_BITKIT_CELL
XCELL<6> A_LBLC<6> A_LBLC<7> A_LBLT<6> A_LBLT<7> A_LWL<6> VDD_CORE 
+ VSS A_XWL<6> VDD_CORE VSS / RM_IHPSG13_512x64_c2_1P_BITKIT_CELL
XCELL<5> A_LBLC<6> A_LBLC<5> A_LBLT<6> A_LBLT<5> A_LWL<5> VDD_CORE 
+ VSS A_XWL<5> VDD_CORE VSS / RM_IHPSG13_512x64_c2_1P_BITKIT_CELL
XCELL<4> A_LBLC<4> A_LBLC<5> A_LBLT<4> A_LBLT<5> A_LWL<4> VDD_CORE 
+ VSS A_XWL<4> VDD_CORE VSS / RM_IHPSG13_512x64_c2_1P_BITKIT_CELL
XCELL<3> A_LBLC<4> A_LBLC<3> A_LBLT<4> A_LBLT<3> A_LWL<3> VDD_CORE 
+ VSS A_XWL<3> VDD_CORE VSS / RM_IHPSG13_512x64_c2_1P_BITKIT_CELL
XCELL<2> A_LBLC<2> A_LBLC<3> A_LBLT<2> A_LBLT<3> A_LWL<2> VDD_CORE 
+ VSS A_XWL<2> VDD_CORE VSS / RM_IHPSG13_512x64_c2_1P_BITKIT_CELL
XCELL<1> A_LBLC<2> A_LBLC<1> A_LBLT<2> A_LBLT<1> A_LWL<1> VDD_CORE 
+ VSS A_XWL<1> VDD_CORE VSS / RM_IHPSG13_512x64_c2_1P_BITKIT_CELL
XCELL<0> A_BLC_BOT<0> A_LBLC<1> A_BLT_BOT<0> A_LBLT<1> A_LWL<0> VDD_CORE 
+ VSS A_XWL<0> VDD_CORE VSS / RM_IHPSG13_512x64_c2_1P_BITKIT_CELL
.ENDS
.SUBCKT RM_IHPSG13_512x64_c2_1P_BITKIT_EDGE_TB BLC BLT NW PW VDD VSS
.ENDS
.SUBCKT RM_IHPSG13_512x64_c2_1P_BITKIT_16x2_EDGE_TB A_BLC<1> A_BLC<0> A_BLT<1> A_BLT<0> 
+ VDD_CORE VSS
XEDGE<1> A_BLC<1> A_BLT<1> VDD_CORE VSS VDD_CORE VSS 
+ / RM_IHPSG13_512x64_c2_1P_BITKIT_EDGE_TB
XEDGE<0> A_BLC<0> A_BLT<0> VDD_CORE VSS VDD_CORE VSS 
+ / RM_IHPSG13_512x64_c2_1P_BITKIT_EDGE_TB
.ENDS

.SUBCKT RSC_IHPSG13_CBUFX4 A Z VDD VSS
MN0 net9 A VSS VSS sg13_lv_nmos m=1 w=705.000n l=130.00n ng=1 nrd=0 
+ nrs=0
MN1 Z net9 VSS VSS sg13_lv_nmos m=1 w=1.41u l=130.00n ng=2 nrd=0 nrs=0
MP0 net9 A VDD VDD sg13_lv_pmos m=1 w=1.62u l=130.00n ng=1 nrd=0 nrs=0
MP1 Z net9 VDD VDD sg13_lv_pmos m=1 w=3.24u l=130.00n ng=2 nrd=0 nrs=0
.ENDS
.SUBCKT RM_IHPSG13_512x64_c2_1P_COLDRV13X4 ADDR_COL_I<1> ADDR_COL_I<0> ADDR_COL_O<1> 
+ ADDR_COL_O<0> ADDR_DEC_I<7> ADDR_DEC_I<6> ADDR_DEC_I<5> ADDR_DEC_I<4> 
+ ADDR_DEC_I<3> ADDR_DEC_I<2> ADDR_DEC_I<1> ADDR_DEC_I<0> ADDR_DEC_O<7> 
+ ADDR_DEC_O<6> ADDR_DEC_O<5> ADDR_DEC_O<4> ADDR_DEC_O<3> ADDR_DEC_O<2> 
+ ADDR_DEC_O<1> ADDR_DEC_O<0> DCLK_I DCLK_O RCLK_I RCLK_O WCLK_I WCLK_O 
+ VDD VSS
XADDR_COL_DRV<1> ADDR_COL_I<1> ADDR_COL_O<1> VDD VSS / 
+ RSC_IHPSG13_CBUFX4
XADDR_COL_DRV<0> ADDR_COL_I<0> ADDR_COL_O<0> VDD VSS / 
+ RSC_IHPSG13_CBUFX4
XADDR_DEC_DRV<7> ADDR_DEC_I<7> ADDR_DEC_O<7> VDD VSS / 
+ RSC_IHPSG13_CBUFX4
XADDR_DEC_DRV<6> ADDR_DEC_I<6> ADDR_DEC_O<6> VDD VSS / 
+ RSC_IHPSG13_CBUFX4
XADDR_DEC_DRV<5> ADDR_DEC_I<5> ADDR_DEC_O<5> VDD VSS / 
+ RSC_IHPSG13_CBUFX4
XADDR_DEC_DRV<4> ADDR_DEC_I<4> ADDR_DEC_O<4> VDD VSS / 
+ RSC_IHPSG13_CBUFX4
XADDR_DEC_DRV<3> ADDR_DEC_I<3> ADDR_DEC_O<3> VDD VSS / 
+ RSC_IHPSG13_CBUFX4
XADDR_DEC_DRV<2> ADDR_DEC_I<2> ADDR_DEC_O<2> VDD VSS / 
+ RSC_IHPSG13_CBUFX4
XADDR_DEC_DRV<1> ADDR_DEC_I<1> ADDR_DEC_O<1> VDD VSS / 
+ RSC_IHPSG13_CBUFX4
XADDR_DEC_DRV<0> ADDR_DEC_I<0> ADDR_DEC_O<0> VDD VSS / 
+ RSC_IHPSG13_CBUFX4
XDCLK_DRV DCLK_I DCLK_O VDD VSS / RSC_IHPSG13_CBUFX4
XRCLK_DRV RCLK_I RCLK_O VDD VSS / RSC_IHPSG13_CBUFX4
XWCLK_DRV WCLK_I WCLK_O VDD VSS / RSC_IHPSG13_CBUFX4
.ENDS
.SUBCKT RSC_IHPSG13_WLDRVX4 A Z VDD VSS
MN1 Z net6 VSS VSS sg13_lv_nmos m=1 w=705.000n l=130.00n ng=1 nrd=0 
+ nrs=0
MN0 net6 A VSS VSS sg13_lv_nmos m=1 w=900.0n l=130.00n ng=1 nrd=0 nrs=0
MP1 Z net6 VDD VDD sg13_lv_pmos m=1 w=3.24u l=130.00n ng=2 nrd=0 nrs=0
MP0 net6 A VDD VDD sg13_lv_pmos m=1 w=900.0n l=130.00n ng=1 nrd=0 nrs=0
.ENDS
.SUBCKT RM_IHPSG13_512x64_c2_1P_WLDRV16X4 A<15> A<14> A<13> A<12> A<11> A<10> A<9> A<8> 
+ A<7> A<6> A<5> A<4> A<3> A<2> A<1> A<0> Z<15> Z<14> Z<13> Z<12> Z<11> Z<10> 
+ Z<9> Z<8> Z<7> Z<6> Z<5> Z<4> Z<3> Z<2> Z<1> Z<0> VDD VSS
XBUF<15> A<15> Z<15> VDD VSS / RSC_IHPSG13_WLDRVX4
XBUF<14> A<14> Z<14> VDD VSS / RSC_IHPSG13_WLDRVX4
XBUF<13> A<13> Z<13> VDD VSS / RSC_IHPSG13_WLDRVX4
XBUF<12> A<12> Z<12> VDD VSS / RSC_IHPSG13_WLDRVX4
XBUF<11> A<11> Z<11> VDD VSS / RSC_IHPSG13_WLDRVX4
XBUF<10> A<10> Z<10> VDD VSS / RSC_IHPSG13_WLDRVX4
XBUF<9> A<9> Z<9> VDD VSS / RSC_IHPSG13_WLDRVX4
XBUF<8> A<8> Z<8> VDD VSS / RSC_IHPSG13_WLDRVX4
XBUF<7> A<7> Z<7> VDD VSS / RSC_IHPSG13_WLDRVX4
XBUF<6> A<6> Z<6> VDD VSS / RSC_IHPSG13_WLDRVX4
XBUF<5> A<5> Z<5> VDD VSS / RSC_IHPSG13_WLDRVX4
XBUF<4> A<4> Z<4> VDD VSS / RSC_IHPSG13_WLDRVX4
XBUF<3> A<3> Z<3> VDD VSS / RSC_IHPSG13_WLDRVX4
XBUF<2> A<2> Z<2> VDD VSS / RSC_IHPSG13_WLDRVX4
XBUF<1> A<1> Z<1> VDD VSS / RSC_IHPSG13_WLDRVX4
XBUF<0> A<0> Z<0> VDD VSS / RSC_IHPSG13_WLDRVX4
.ENDS
.SUBCKT RSC_IHPSG13_FILLCAP8 VDD VSS
MN0 vss_r vdd_r VSS VSS sg13_lv_nmos m=1 w=4.98u l=130.00n ng=6 nrd=0 
+ nrs=0
MP0 vdd_r vss_r VDD VDD sg13_lv_pmos m=1 w=6.48u l=385.000n ng=4 nrd=0 
+ nrs=0
.ENDS
.SUBCKT RSC_IHPSG13_LHPQX2 CP D Q VDD VSS
MN3 QIN CPN net14 VSS sg13_lv_nmos m=1 w=480.00n l=130.00n ng=1 nrd=0 nrs=0
MN2 net14 net10 VSS VSS sg13_lv_nmos m=1 w=480.00n l=130.00n ng=1 
+ nrd=0 nrs=0
MN5 net21 D VSS VSS sg13_lv_nmos m=1 w=870.00n l=130.00n ng=1 nrd=0 
+ nrs=0
MN6 QIN CP net21 VSS sg13_lv_nmos m=1 w=870.00n l=130.00n ng=1 nrd=0 nrs=0
MN1 net10 QIN VSS VSS sg13_lv_nmos m=1 w=480.00n l=130.00n ng=1 nrd=0 
+ nrs=0
MN0 CPN CP VSS VSS sg13_lv_nmos m=1 w=480.00n l=130.00n ng=1 nrd=0 
+ nrs=0
MN4 Q QIN VSS VSS sg13_lv_nmos m=1 w=980.00n l=130.00n ng=1 nrd=0 nrs=0
MP2 QIN CP net16 VDD sg13_lv_pmos m=1 w=480.00n l=130.00n ng=1 nrd=0 nrs=0
MP0 CPN CP VDD VDD sg13_lv_pmos m=1 w=480.00n l=130.00n ng=1 nrd=0 
+ nrs=0
MP4 Q QIN VDD VDD sg13_lv_pmos m=1 w=1.62u l=130.00n ng=1 nrd=0 nrs=0
MP3 net10 QIN VDD VDD sg13_lv_pmos m=1 w=480.00n l=130.00n ng=1 nrd=0 
+ nrs=0
MP1 net16 net10 VDD VDD sg13_lv_pmos m=1 w=480.00n l=130.00n ng=1 
+ nrd=0 nrs=0
MP6 QIN CPN net20 VDD sg13_lv_pmos m=1 w=975.000n l=130.00n ng=1 nrd=0 
+ nrs=0
MP5 net20 D VDD VDD sg13_lv_pmos m=1 w=975.000n l=130.00n ng=1 nrd=0 
+ nrs=0
.ENDS
.SUBCKT RSC_IHPSG13_NAND2X2 A B Z VDD VSS
MP1 Z B VDD VDD sg13_lv_pmos m=1 w=1.62u l=130.00n ng=1 nrd=0 nrs=0
MP0 Z A VDD VDD sg13_lv_pmos m=1 w=1.62u l=130.00n ng=1 nrd=0 nrs=0
MN0 Z B net7 VSS sg13_lv_nmos m=1 w=980.00n l=130.00n ng=1 nrd=0 nrs=0
MN1 net7 A VSS VSS sg13_lv_nmos m=1 w=980.00n l=130.00n ng=1 nrd=0 
+ nrs=0
.ENDS
.SUBCKT RSC_IHPSG13_CINVX4 A Z VDD VSS
MN0 Z A VSS VSS sg13_lv_nmos m=1 w=1.41u l=130.00n ng=2 nrd=0 nrs=0
MP0 Z A VDD VDD sg13_lv_pmos m=1 w=3.24u l=130.00n ng=2 nrd=0 nrs=0
.ENDS
.SUBCKT RSC_IHPSG13_CINVX2 A Z VDD VSS
MN0 Z A VSS VSS sg13_lv_nmos m=1 w=705.000n l=130.00n ng=1 nrd=0 nrs=0
MP0 Z A VDD VDD sg13_lv_pmos m=1 w=1.62u l=130.00n ng=1 nrd=0 nrs=0
.ENDS
.SUBCKT RSC_IHPSG13_INVX2 A Z VDD VSS
MN0 Z A VSS VSS sg13_lv_nmos m=1 w=980.00n l=130.00n ng=1 nrd=0 nrs=0
MP0 Z A VDD VDD sg13_lv_pmos m=1 w=1.62u l=130.00n ng=1 nrd=0 nrs=0
.ENDS
.SUBCKT RSC_IHPSG13_NAND3X2 A B C Z VDD VSS
MP2 Z A VDD VDD sg13_lv_pmos m=1 w=1.62u l=130.00n ng=1 nrd=0 nrs=0
MP1 Z B VDD VDD sg13_lv_pmos m=1 w=1.62u l=130.00n ng=1 nrd=0 nrs=0
MP0 Z C VDD VDD sg13_lv_pmos m=1 w=1.62u l=130.00n ng=1 nrd=0 nrs=0
MN1 net12 B net16 VSS sg13_lv_nmos m=1 w=980.00n l=130.00n ng=1 nrd=0 nrs=0
MN0 Z C net12 VSS sg13_lv_nmos m=1 w=980.00n l=130.00n ng=1 nrd=0 nrs=0
MN2 net16 A VSS VSS sg13_lv_nmos m=1 w=980.00n l=130.00n ng=1 nrd=0 
+ nrs=0
.ENDS
.SUBCKT RSC_IHPSG13_NOR3X2 A B C Z VDD VSS
MP0 net13 A VDD VDD sg13_lv_pmos m=1 w=1.62u l=130.00n ng=1 nrd=0 nrs=0
MP2 Z C net10 VDD sg13_lv_pmos m=1 w=1.62u l=130.00n ng=1 nrd=0 nrs=0
MP1 net10 B net13 VDD sg13_lv_pmos m=1 w=1.62u l=130.00n ng=1 nrd=0 nrs=0
MN1 Z B VSS VSS sg13_lv_nmos m=1 w=875.000n l=130.00n ng=1 nrd=0 nrs=0
MN0 Z C VSS VSS sg13_lv_nmos m=1 w=875.000n l=130.00n ng=1 nrd=0 nrs=0
MN2 Z A VSS VSS sg13_lv_nmos m=1 w=875.000n l=130.00n ng=1 nrd=0 nrs=0
.ENDS
.SUBCKT RSC_IHPSG13_FILLCAP4 VDD VSS
MN0 vss_r vdd_r VSS VSS sg13_lv_nmos m=1 w=2.49u l=130.00n ng=3 nrd=0 
+ nrs=0
MP0 vdd_r vss_r VDD VDD sg13_lv_pmos m=1 w=3.24u l=385.000n ng=2 nrd=0 
+ nrs=0
.ENDS
.SUBCKT RSC_IHPSG13_MET2RES A B
R0 B A lvsres w=2.6e-07 l=6e-07
.ENDS
.SUBCKT RM_IHPSG13_512x64_c2_1P_DEC04 ADDR<3> ADDR<2> ADDR<1> ADDR<0> CS ECLK_H_BOT 
+ ECLK_H_TOP ECLK_L_BOT ECLK_L_TOP WL<15> WL<14> WL<13> WL<12> WL<11> WL<10> 
+ WL<9> WL<8> WL<7> WL<6> WL<5> WL<4> WL<3> WL<2> WL<1> WL<0> VDD VSS
XLATCH<3> CS ADDR<3> PADR<3> VDD VSS / RSC_IHPSG13_LHPQX2
XLATCH<2> CS ADDR<2> PADR<2> VDD VSS / RSC_IHPSG13_LHPQX2
XLATCH<1> CS ADDR<1> PADR<1> VDD VSS / RSC_IHPSG13_LHPQX2
XLATCH<0> CS ADDR<0> PADR<0> VDD VSS / RSC_IHPSG13_LHPQX2
XI0<3> PADR<1> PADR<0> sel01<3> VDD VSS / RSC_IHPSG13_NAND2X2
XI0<2> PADR<1> NADR<0> sel01<2> VDD VSS / RSC_IHPSG13_NAND2X2
XI0<1> NADR<1> PADR<0> sel01<1> VDD VSS / RSC_IHPSG13_NAND2X2
XI0<0> NADR<1> NADR<0> sel01<0> VDD VSS / RSC_IHPSG13_NAND2X2
XI4 ECLK_L_BOT EN VDD VSS / RSC_IHPSG13_CINVX4
XI5 ECLK_H_BOT ECLK_L_BOT VDD VSS / RSC_IHPSG13_CINVX2
XI3<3> PADR<3> NADR<3> VDD VSS / RSC_IHPSG13_INVX2
XI3<2> PADR<2> NADR<2> VDD VSS / RSC_IHPSG13_INVX2
XI3<1> PADR<1> NADR<1> VDD VSS / RSC_IHPSG13_INVX2
XI3<0> PADR<0> NADR<0> VDD VSS / RSC_IHPSG13_INVX2
XI1<3> PADR<2> PADR<3> CS sel23<3> VDD VSS / RSC_IHPSG13_NAND3X2
XI1<2> NADR<2> PADR<3> CS sel23<2> VDD VSS / RSC_IHPSG13_NAND3X2
XI1<1> PADR<2> NADR<3> CS sel23<1> VDD VSS / RSC_IHPSG13_NAND3X2
XI1<0> NADR<2> NADR<3> CS sel23<0> VDD VSS / RSC_IHPSG13_NAND3X2
XI2<15> sel23<3> sel01<3> EN WL<15> VDD VSS / RSC_IHPSG13_NOR3X2
XI2<14> sel23<3> sel01<2> EN WL<14> VDD VSS / RSC_IHPSG13_NOR3X2
XI2<13> sel23<3> sel01<1> EN WL<13> VDD VSS / RSC_IHPSG13_NOR3X2
XI2<12> sel23<3> sel01<0> EN WL<12> VDD VSS / RSC_IHPSG13_NOR3X2
XI2<11> sel23<2> sel01<3> EN WL<11> VDD VSS / RSC_IHPSG13_NOR3X2
XI2<10> sel23<2> sel01<2> EN WL<10> VDD VSS / RSC_IHPSG13_NOR3X2
XI2<9> sel23<2> sel01<1> EN WL<9> VDD VSS / RSC_IHPSG13_NOR3X2
XI2<8> sel23<2> sel01<0> EN WL<8> VDD VSS / RSC_IHPSG13_NOR3X2
XI2<7> sel23<1> sel01<3> EN WL<7> VDD VSS / RSC_IHPSG13_NOR3X2
XI2<6> sel23<1> sel01<2> EN WL<6> VDD VSS / RSC_IHPSG13_NOR3X2
XI2<5> sel23<1> sel01<1> EN WL<5> VDD VSS / RSC_IHPSG13_NOR3X2
XI2<4> sel23<1> sel01<0> EN WL<4> VDD VSS / RSC_IHPSG13_NOR3X2
XI2<3> sel23<0> sel01<3> EN WL<3> VDD VSS / RSC_IHPSG13_NOR3X2
XI2<2> sel23<0> sel01<2> EN WL<2> VDD VSS / RSC_IHPSG13_NOR3X2
XI2<1> sel23<0> sel01<1> EN WL<1> VDD VSS / RSC_IHPSG13_NOR3X2
XI2<0> sel23<0> sel01<0> EN WL<0> VDD VSS / RSC_IHPSG13_NOR3X2
XCAPS4 VDD VSS / RSC_IHPSG13_FILLCAP4
XI11 ECLK_L_BOT ECLK_L_TOP / RSC_IHPSG13_MET2RES
XR0 ECLK_H_BOT ECLK_H_TOP / RSC_IHPSG13_MET2RES
.ENDS
.SUBCKT RM_IHPSG13_512x64_c2_1P_ROWDEC4 ADDR_N_I<3> ADDR_N_I<2> ADDR_N_I<1> ADDR_N_I<0> 
+ CS_I ECLK_I WL_O<15> WL_O<14> WL_O<13> WL_O<12> WL_O<11> WL_O<10> WL_O<9> 
+ WL_O<8> WL_O<7> WL_O<6> WL_O<5> WL_O<4> WL_O<3> WL_O<2> WL_O<1> WL_O<0> 
+ VDD VSS
XL2<8> VDD VSS / RSC_IHPSG13_FILLCAP8
XL2<7> VDD VSS / RSC_IHPSG13_FILLCAP8
XL2<6> VDD VSS / RSC_IHPSG13_FILLCAP8
XL2<5> VDD VSS / RSC_IHPSG13_FILLCAP8
XL2<4> VDD VSS / RSC_IHPSG13_FILLCAP8
XL2<3> VDD VSS / RSC_IHPSG13_FILLCAP8
XL2<2> VDD VSS / RSC_IHPSG13_FILLCAP8
XL2<1> VDD VSS / RSC_IHPSG13_FILLCAP8
XSEL ADDR_N_I<3> ADDR_N_I<2> ADDR_N_I<1> ADDR_N_I<0> CS_I ECLK_I ECLK_H<1> 
+ ECLK_B<0> ECLK_B<1> WL_O<15> WL_O<14> WL_O<13> WL_O<12> WL_O<11> WL_O<10> 
+ WL_O<9> WL_O<8> WL_O<7> WL_O<6> WL_O<5> WL_O<4> WL_O<3> WL_O<2> WL_O<1> 
+ WL_O<0> VDD VSS / RM_IHPSG13_512x64_c2_1P_DEC04
.ENDS
.SUBCKT RSC_IHPSG13_CINVX8 A Z VDD VSS
MN0 Z A VSS VSS sg13_lv_nmos m=1 w=2.82u l=130.00n ng=4 nrd=0 nrs=0
MP0 Z A VDD VDD sg13_lv_pmos m=1 w=6.48u l=130.00n ng=4 nrd=0 nrs=0
.ENDS
.SUBCKT RSC_IHPSG13_DFNQMX2IX1 BE BI CN D QI QIN VDD VSS
MN15 net026 BI VSS VSS sg13_lv_nmos m=1 w=560.00n l=130.00n ng=1 nrd=0 
+ nrs=0
MN14 MXI_OUT BE net026 VSS sg13_lv_nmos m=1 w=560.00n l=130.00n ng=1 nrd=0 
+ nrs=0
MN1 net025 D VSS VSS sg13_lv_nmos m=1 w=560.00n l=130.00n ng=1 nrd=0 
+ nrs=0
MN0 MXI_OUT BEN net025 VSS sg13_lv_nmos m=1 w=560.00n l=130.00n ng=1 nrd=0 
+ nrs=0
MN10 QI CNN net21 VSS sg13_lv_nmos m=1 w=850.00n l=130.00n ng=1 nrd=0 nrs=0
MN11 net21 QI_MS VSS VSS sg13_lv_nmos m=1 w=850.00n l=130.00n ng=1 
+ nrd=0 nrs=0
MN7 net30 QI_MS VSS VSS sg13_lv_nmos m=1 w=480.00n l=130.00n ng=1 
+ nrd=0 nrs=0
MN6 QIN_MS CNN net30 VSS sg13_lv_nmos m=1 w=480.00n l=130.00n ng=1 nrd=0 
+ nrs=0
MN3 QI_MS QIN_MS VSS VSS sg13_lv_nmos m=1 w=480.00n l=130.00n ng=1 
+ nrd=0 nrs=0
MN12 CNN CN VSS VSS sg13_lv_nmos m=1 w=495.000n l=130.00n ng=1 nrd=0 
+ nrs=0
MN9 net37 MXI_OUT VSS VSS sg13_lv_nmos m=1 w=870.00n l=130.00n ng=1 
+ nrd=0 nrs=0
MN8 QIN_MS CN net37 VSS sg13_lv_nmos m=1 w=870.00n l=130.00n ng=1 nrd=0 
+ nrs=0
MN5 QI CN net25 VSS sg13_lv_nmos m=1 w=480.00n l=130.00n ng=1 nrd=0 nrs=0
MN4 net25 QIN VSS VSS sg13_lv_nmos m=1 w=480.00n l=130.00n ng=1 nrd=0 
+ nrs=0
MN2 QIN QI VSS VSS sg13_lv_nmos m=1 w=480.00n l=130.00n ng=1 nrd=0 
+ nrs=0
MN13 BEN BE VSS VSS sg13_lv_nmos m=1 w=560.00n l=130.00n ng=1 nrd=0 
+ nrs=0
MP15 MXI_OUT BEN net027 VDD sg13_lv_pmos m=1 w=985.000n l=130.00n ng=1 
+ nrd=0 nrs=0
MP14 net027 BI VDD VDD sg13_lv_pmos m=1 w=985.000n l=130.00n ng=1 
+ nrd=0 nrs=0
MP1 MXI_OUT BE net024 VDD sg13_lv_pmos m=1 w=985.000n l=130.00n ng=1 nrd=0 
+ nrs=0
MP0 net024 D VDD VDD sg13_lv_pmos m=1 w=985.000n l=130.00n ng=1 nrd=0 
+ nrs=0
MP13 BEN BE VDD VDD sg13_lv_pmos m=1 w=645.000n l=130.00n ng=1 nrd=0 
+ nrs=0
MP6 QI_MS QIN_MS VDD VDD sg13_lv_pmos m=1 w=480.00n l=130.00n ng=1 
+ nrd=0 nrs=0
MP3 QI CNN net27 VDD sg13_lv_pmos m=1 w=480.00n l=130.00n ng=1 nrd=0 nrs=0
MP2 net27 QIN VDD VDD sg13_lv_pmos m=1 w=480.00n l=130.00n ng=1 nrd=0 
+ nrs=0
MP10 net36 MXI_OUT VDD VDD sg13_lv_pmos m=1 w=975.000n l=130.00n ng=1 
+ nrd=0 nrs=0
MP11 QIN_MS CNN net36 VDD sg13_lv_pmos m=1 w=975.000n l=130.00n ng=1 nrd=0 
+ nrs=0
MP4 net32 QI_MS VDD VDD sg13_lv_pmos m=1 w=480.00n l=130.00n ng=1 
+ nrd=0 nrs=0
MP5 QIN_MS CN net32 VDD sg13_lv_pmos m=1 w=480.00n l=130.00n ng=1 nrd=0 
+ nrs=0
MP7 QIN QI VDD VDD sg13_lv_pmos m=1 w=480.00n l=130.00n ng=1 nrd=0 
+ nrs=0
MP12 CNN CN VDD VDD sg13_lv_pmos m=1 w=480.00n l=130.00n ng=1 nrd=0 
+ nrs=0
MP9 QI CN net19 VDD sg13_lv_pmos m=1 w=990.00n l=130.00n ng=1 nrd=0 nrs=0
MP8 net19 QI_MS VDD VDD sg13_lv_pmos m=1 w=990.00n l=130.00n ng=1 
+ nrd=0 nrs=0
.ENDS
.SUBCKT RM_IHPSG13_512x64_c2_1P_ROWREG4 ACLK_N_I ADDR_I<3> ADDR_I<2> ADDR_I<1> ADDR_I<0> 
+ ADDR_N_O<3> ADDR_N_O<2> ADDR_N_O<1> ADDR_N_O<0> BIST_ADDR_I<3> 
+ BIST_ADDR_I<2> BIST_ADDR_I<1> BIST_ADDR_I<0> BIST_EN_I VDD VSS
XINV<3> q_int<3> qn_int<3> VDD VSS / RSC_IHPSG13_CINVX2
XINV<2> q_int<2> qn_int<2> VDD VSS / RSC_IHPSG13_CINVX2
XINV<1> q_int<1> qn_int<1> VDD VSS / RSC_IHPSG13_CINVX2
XINV<0> q_int<0> qn_int<0> VDD VSS / RSC_IHPSG13_CINVX2
XDRV<3> qn_int<3> ADDR_N_O<3> VDD VSS / RSC_IHPSG13_CINVX8
XDRV<2> qn_int<2> ADDR_N_O<2> VDD VSS / RSC_IHPSG13_CINVX8
XDRV<1> qn_int<1> ADDR_N_O<1> VDD VSS / RSC_IHPSG13_CINVX8
XDRV<0> qn_int<0> ADDR_N_O<0> VDD VSS / RSC_IHPSG13_CINVX8
XDFF<3> BIST_EN_I BIST_ADDR_I<3> ACLK_N_I ADDR_I<3> q_int<3> net2<0> VDD 
+ VSS / RSC_IHPSG13_DFNQMX2IX1
XDFF<2> BIST_EN_I BIST_ADDR_I<2> ACLK_N_I ADDR_I<2> q_int<2> net2<1> VDD 
+ VSS / RSC_IHPSG13_DFNQMX2IX1
XDFF<1> BIST_EN_I BIST_ADDR_I<1> ACLK_N_I ADDR_I<1> q_int<1> net2<2> VDD 
+ VSS / RSC_IHPSG13_DFNQMX2IX1
XDFF<0> BIST_EN_I BIST_ADDR_I<0> ACLK_N_I ADDR_I<0> q_int<0> net2<3> VDD 
+ VSS / RSC_IHPSG13_DFNQMX2IX1
XI11<20> VDD VSS / RSC_IHPSG13_FILLCAP8
XI11<19> VDD VSS / RSC_IHPSG13_FILLCAP8
XI11<18> VDD VSS / RSC_IHPSG13_FILLCAP8
XI11<17> VDD VSS / RSC_IHPSG13_FILLCAP8
XI11<16> VDD VSS / RSC_IHPSG13_FILLCAP8
XI11<15> VDD VSS / RSC_IHPSG13_FILLCAP8
XI11<14> VDD VSS / RSC_IHPSG13_FILLCAP8
XI11<13> VDD VSS / RSC_IHPSG13_FILLCAP8
XI11<12> VDD VSS / RSC_IHPSG13_FILLCAP8
XI11<11> VDD VSS / RSC_IHPSG13_FILLCAP8
XI11<10> VDD VSS / RSC_IHPSG13_FILLCAP8
XI11<9> VDD VSS / RSC_IHPSG13_FILLCAP8
XI11<8> VDD VSS / RSC_IHPSG13_FILLCAP8
XI11<7> VDD VSS / RSC_IHPSG13_FILLCAP8
XI11<6> VDD VSS / RSC_IHPSG13_FILLCAP8
XI11<5> VDD VSS / RSC_IHPSG13_FILLCAP8
XI11<4> VDD VSS / RSC_IHPSG13_FILLCAP8
XI11<3> VDD VSS / RSC_IHPSG13_FILLCAP8
XI11<2> VDD VSS / RSC_IHPSG13_FILLCAP8
XI11<1> VDD VSS / RSC_IHPSG13_FILLCAP8
.ENDS
.SUBCKT RSC_IHPSG13_CDLYX1 A Z VDD VSS
MN1 net010 net032 VSS VSS sg13_lv_nmos m=1 w=300.0n l=160.00n ng=1 
+ nrd=0 nrs=0
MN2 net032 A net014 VSS sg13_lv_nmos m=1 w=300.0n l=160.00n ng=1 nrd=0 
+ nrs=0
MN0 Z net032 net010 VSS sg13_lv_nmos m=1 w=300.0n l=160.00n ng=1 nrd=0 
+ nrs=0
MN3 net014 A VSS VSS sg13_lv_nmos m=1 w=300.0n l=160.00n ng=1 nrd=0 
+ nrs=0
MP1 Z net032 net07 VDD sg13_lv_pmos m=1 w=720.00n l=160.00n ng=1 nrd=0 
+ nrs=0
MP3 net011 A VDD VDD sg13_lv_pmos m=1 w=720.00n l=160.00n ng=1 nrd=0 
+ nrs=0
MP0 net07 net032 VDD VDD sg13_lv_pmos m=1 w=720.00n l=160.00n ng=1 
+ nrd=0 nrs=0
MP2 net032 A net011 VDD sg13_lv_pmos m=1 w=720.00n l=160.00n ng=1 nrd=0 
+ nrs=0
.ENDS
.SUBCKT RSC_IHPSG13_CDLYX1_DUMMY A Z VDD VSS
MN0 vss_r vdd_r VSS VSS sg13_lv_nmos m=1 w=2.49u l=300.0n ng=3 nrd=0 
+ nrs=0
MP0 vdd_r vss_r VDD VDD sg13_lv_pmos m=1 w=3.24u l=640.00n ng=2 nrd=0 
+ nrs=0
R0 Z A lvsres w=2.6e-07 l=6e-07
.ENDS

.SUBCKT RSC_IHPSG13_MX2IX1 A0 A1 S ZN VDD VSS
MP4 SN S VDD VDD sg13_lv_pmos m=1 w=645.000n l=130.00n ng=1 nrd=0 nrs=0
MP3 ZN SN net12 VDD sg13_lv_pmos m=1 w=985.000n l=130.00n ng=1 nrd=0 nrs=0
MP2 net12 A1 VDD VDD sg13_lv_pmos m=1 w=985.000n l=130.00n ng=1 nrd=0 
+ nrs=0
MP1 ZN S net17 VDD sg13_lv_pmos m=1 w=985.000n l=130.00n ng=1 nrd=0 nrs=0
MP0 net17 A0 VDD VDD sg13_lv_pmos m=1 w=985.000n l=130.00n ng=1 nrd=0 
+ nrs=0
MN5 SN S VSS VSS sg13_lv_nmos m=1 w=480.00n l=130.00n ng=1 nrd=0 nrs=0
MN3 net13 A1 VSS VSS sg13_lv_nmos m=1 w=480.00n l=130.00n ng=1 nrd=0 
+ nrs=0
MN2 ZN S net13 VSS sg13_lv_nmos m=1 w=480.00n l=130.00n ng=1 nrd=0 nrs=0
MN1 net15 A0 VSS VSS sg13_lv_nmos m=1 w=480.00n l=130.00n ng=1 nrd=0 
+ nrs=0
MN0 ZN SN net15 VSS sg13_lv_nmos m=1 w=480.00n l=130.00n ng=1 nrd=0 nrs=0
.ENDS
.SUBCKT RM_IHPSG13_512x64_c2_1P_DLY_MUX A SEL Z VDD VSS
XI11 net4 Z VDD VSS / RSC_IHPSG13_CINVX2
XI8 A D<3> SEL net4 VDD VSS / RSC_IHPSG13_MX2IX1
XI20<3> D<2> D<3> VDD VSS / RSC_IHPSG13_CDLYX1
XI20<2> D<1> D<2> VDD VSS / RSC_IHPSG13_CDLYX1
XI20<1> A D<1> VDD VSS / RSC_IHPSG13_CDLYX1
.ENDS
.SUBCKT RSC_IHPSG13_DFNQX2 CN D Q VDD VSS
MN0 Q QIN_SL VSS VSS sg13_lv_nmos m=1 w=980.00n l=130.00n ng=1 nrd=0 
+ nrs=0
MN10 QIN_SL CNN net21 VSS sg13_lv_nmos m=1 w=850.00n l=130.00n ng=1 nrd=0 
+ nrs=0
MN11 net21 QI_MS VSS VSS sg13_lv_nmos m=1 w=850.00n l=130.00n ng=1 
+ nrd=0 nrs=0
MN7 net30 QI_MS VSS VSS sg13_lv_nmos m=1 w=480.00n l=130.00n ng=1 
+ nrd=0 nrs=0
MN6 QIN_MS CNN net30 VSS sg13_lv_nmos m=1 w=480.00n l=130.00n ng=1 nrd=0 
+ nrs=0
MN3 QI_MS QIN_MS VSS VSS sg13_lv_nmos m=1 w=480.00n l=130.00n ng=1 
+ nrd=0 nrs=0
MN12 CNN CN VSS VSS sg13_lv_nmos m=1 w=495.000n l=130.00n ng=1 nrd=0 
+ nrs=0
MN9 net37 D VSS VSS sg13_lv_nmos m=1 w=870.00n l=130.00n ng=1 nrd=0 
+ nrs=0
MN8 QIN_MS CN net37 VSS sg13_lv_nmos m=1 w=870.00n l=130.00n ng=1 nrd=0 
+ nrs=0
MN5 QIN_SL CN net25 VSS sg13_lv_nmos m=1 w=480.00n l=130.00n ng=1 nrd=0 
+ nrs=0
MN4 net25 QI_SL VSS VSS sg13_lv_nmos m=1 w=480.00n l=130.00n ng=1 
+ nrd=0 nrs=0
MN2 QI_SL QIN_SL VSS VSS sg13_lv_nmos m=1 w=480.00n l=130.00n ng=1 
+ nrd=0 nrs=0
MP0 Q QIN_SL VDD VDD sg13_lv_pmos m=1 w=1.62u l=130.00n ng=1 nrd=0 
+ nrs=0
MP6 QI_MS QIN_MS VDD VDD sg13_lv_pmos m=1 w=480.00n l=130.00n ng=1 
+ nrd=0 nrs=0
MP3 QIN_SL CNN net27 VDD sg13_lv_pmos m=1 w=480.00n l=130.00n ng=1 nrd=0 
+ nrs=0
MP2 net27 QI_SL VDD VDD sg13_lv_pmos m=1 w=480.00n l=130.00n ng=1 
+ nrd=0 nrs=0
MP10 net36 D VDD VDD sg13_lv_pmos m=1 w=975.000n l=130.00n ng=1 nrd=0 
+ nrs=0
MP11 QIN_MS CNN net36 VDD sg13_lv_pmos m=1 w=975.000n l=130.00n ng=1 nrd=0 
+ nrs=0
MP4 net32 QI_MS VDD VDD sg13_lv_pmos m=1 w=480.00n l=130.00n ng=1 
+ nrd=0 nrs=0
MP5 QIN_MS CN net32 VDD sg13_lv_pmos m=1 w=480.00n l=130.00n ng=1 nrd=0 
+ nrs=0
MP7 QI_SL QIN_SL VDD VDD sg13_lv_pmos m=1 w=480.00n l=130.00n ng=1 
+ nrd=0 nrs=0
MP12 CNN CN VDD VDD sg13_lv_pmos m=1 w=480.00n l=130.00n ng=1 nrd=0 
+ nrs=0
MP9 QIN_SL CN net19 VDD sg13_lv_pmos m=1 w=990.00n l=130.00n ng=1 nrd=0 
+ nrs=0
MP8 net19 QI_MS VDD VDD sg13_lv_pmos m=1 w=990.00n l=130.00n ng=1 
+ nrd=0 nrs=0
.ENDS
.SUBCKT RSC_IHPSG13_CNAND2X2 A B Z VDD VSS
MN0 Z B net6 VSS sg13_lv_nmos m=1 w=980.00n l=130.00n ng=1 nrd=0 nrs=0
MN1 net6 A VSS VSS sg13_lv_nmos m=1 w=980.00n l=130.00n ng=1 nrd=0 
+ nrs=0
MP1 Z B VDD VDD sg13_lv_pmos m=1 w=1.62u l=130.00n ng=1 nrd=0 nrs=0
MP0 Z A VDD VDD sg13_lv_pmos m=1 w=1.62u l=130.00n ng=1 nrd=0 nrs=0
.ENDS
.SUBCKT RSC_IHPSG13_CGATEPX4 CP E Q VDD VSS
MN1 net08 QIN VSS VSS sg13_lv_nmos m=1 w=480.00n l=130.00n ng=1 nrd=0 
+ nrs=0
MN2 net019 net08 VSS VSS sg13_lv_nmos m=1 w=480.00n l=130.00n ng=1 
+ nrd=0 nrs=0
MN3 QIN CP net019 VSS sg13_lv_nmos m=1 w=480.00n l=130.00n ng=1 nrd=0 nrs=0
MN6 Q net015 VSS VSS sg13_lv_nmos m=1 w=1.41u l=130.00n ng=2 nrd=0 
+ nrs=0
MN5 net015 net08 net018 VSS sg13_lv_nmos m=1 w=980.00n l=130.00n ng=1 
+ nrd=0 nrs=0
MN8 QIN CPN net023 VSS sg13_lv_nmos m=1 w=870.00n l=130.00n ng=1 nrd=0 
+ nrs=0
MN7 net023 E VSS VSS sg13_lv_nmos m=1 w=870.00n l=130.00n ng=1 nrd=0 
+ nrs=0
MN4 net018 CP VSS VSS sg13_lv_nmos m=1 w=980.00n l=130.00n ng=1 nrd=0 
+ nrs=0
MN0 CPN CP VSS VSS sg13_lv_nmos m=1 w=500.0n l=130.00n ng=1 nrd=0 nrs=0
MP3 net08 QIN VDD VDD sg13_lv_pmos m=1 w=480.00n l=130.00n ng=1 nrd=0 
+ nrs=0
MP2 QIN CPN net017 VDD sg13_lv_pmos m=1 w=480.00n l=130.00n ng=1 nrd=0 
+ nrs=0
MP1 net017 net08 VDD VDD sg13_lv_pmos m=1 w=480.00n l=130.00n ng=1 
+ nrd=0 nrs=0
MP0 CPN CP VDD VDD sg13_lv_pmos m=1 w=500.0n l=130.00n ng=1 nrd=0 nrs=0
MP8 QIN CP net024 VDD sg13_lv_pmos m=1 w=975.000n l=130.00n ng=1 nrd=0 
+ nrs=0
MP7 net024 E VDD VDD sg13_lv_pmos m=1 w=975.000n l=130.00n ng=1 nrd=0 
+ nrs=0
MP4 net015 CP VDD VDD sg13_lv_pmos m=1 w=1.27u l=130.00n ng=1 nrd=0 
+ nrs=0
MP6 Q net015 VDD VDD sg13_lv_pmos m=1 w=3.24u l=130.00n ng=2 nrd=0 
+ nrs=0
MP5 net015 net08 VDD VDD sg13_lv_pmos m=1 w=1.27u l=130.00n ng=1 nrd=0 
+ nrs=0
.ENDS
.SUBCKT RSC_IHPSG13_CBUFX8 A Z VDD VSS
MP0 net4 A VDD VDD sg13_lv_pmos m=1 w=3.24u l=130.00n ng=2 nrd=0 nrs=0
MP1 Z net4 VDD VDD sg13_lv_pmos m=1 w=6.48u l=130.00n ng=4 nrd=0 nrs=0
MN1 Z net4 VSS VSS sg13_lv_nmos m=1 w=2.82u l=130.00n ng=4 nrd=0 nrs=0
MN0 net4 A VSS VSS sg13_lv_nmos m=1 w=1.41u l=130.00n ng=2 nrd=0 nrs=0
.ENDS
.SUBCKT RSC_IHPSG13_CDLYX2 A Z VDD VSS
MN2 net4 A net9 VSS sg13_lv_nmos m=1 w=320.00n l=200.0n ng=1 nrd=0 nrs=0
MN0 Z net4 VSS VSS sg13_lv_nmos m=1 w=705.000n l=130.00n ng=1 nrd=0 
+ nrs=0
MN1 net9 A VSS VSS sg13_lv_nmos m=1 w=320.00n l=200.0n ng=1 nrd=0 nrs=0
MP2 net4 A net10 VDD sg13_lv_pmos m=1 w=1.2u l=200.0n ng=1 nrd=0 nrs=0
MP1 net10 A VDD VDD sg13_lv_pmos m=1 w=1.2u l=200.0n ng=1 nrd=0 nrs=0
MP0 Z net4 VDD VDD sg13_lv_pmos m=1 w=1.62u l=130.00n ng=1 nrd=0 nrs=0
.ENDS
.SUBCKT RSC_IHPSG13_MX2X2 A0 A1 S Z VDD VSS
MP6 Z net010 VDD VDD sg13_lv_pmos m=1 w=1.62u l=130.00n ng=1 nrd=0 
+ nrs=0
MP4 SN S VDD VDD sg13_lv_pmos m=1 w=645.000n l=130.00n ng=1 nrd=0 nrs=0
MP3 net010 SN net12 VDD sg13_lv_pmos m=1 w=985.000n l=130.00n ng=1 nrd=0 
+ nrs=0