************************************************************************
* 
* Copyright 2023 IHP PDK Authors
* 
* Licensed under the Apache License, Version 2.0 (the "License");
* you may not use this file except in compliance with the License.
* You may obtain a copy of the License at
* 
*    https://www.apache.org/licenses/LICENSE-2.0
* 
* Unless required by applicable law or agreed to in writing, software
* distributed under the License is distributed on an "AS IS" BASIS,
* WITHOUT WARRANTIES OR CONDITIONS OF ANY KIND, either express or implied.
* See the License for the specific language governing permissions and
* limitations under the License.
* 
************************************************************************

************************************************************************
* Library Name: sg13g2_stdcell
* Cell Name:    sg13g2_a21o_1
* View Name:    schematic
************************************************************************

.SUBCKT sg13g2_a21o_1 X A1 A2 B1 VDD VSS
*.PININFO A1:I A2:I B1:I X:O VDD:B VSS:B
MN0 net1 A1 net2 VSS sg13_lv_nmos m=1 w=640.00n l=130.00n ng=1
MN1 net2 A2 VSS VSS sg13_lv_nmos m=1 w=640.00n l=130.00n ng=1
MN2 net1 B1 VSS VSS sg13_lv_nmos m=1 w=640.00n l=130.00n ng=1
MN3 X net1 VSS VSS sg13_lv_nmos m=1 w=740.00n l=130.00n ng=1
MP0 net1 B1 net3 VDD sg13_lv_pmos m=1 w=1.000u l=130.00n ng=1
MP1 net3 A1 VDD VDD sg13_lv_pmos m=1 w=1.000u l=130.00n ng=1
MP2 net3 A2 VDD VDD sg13_lv_pmos m=1 w=1.000u l=130.00n ng=1
MP3 X net1 VDD VDD sg13_lv_pmos m=1 w=1.12u l=130.00n ng=1
.ENDS

************************************************************************
* Library Name: sg13g2_stdcell
* Cell Name:    sg13g2_a21o_2
* View Name:    schematic
************************************************************************

.SUBCKT sg13g2_a21o_2 X A1 A2 B1 VDD VSS
*.PININFO A1:I A2:I B1:I X:O VDD:B VSS:B
MN0 net1 A1 net2 VSS sg13_lv_nmos m=1 w=740.00n l=130.00n ng=1
MN1 net2 A2 VSS VSS sg13_lv_nmos m=1 w=740.00n l=130.00n ng=1
MN2 net1 B1 VSS VSS sg13_lv_nmos m=1 w=740.00n l=130.00n ng=1
MN3 X net1 VSS VSS sg13_lv_nmos m=1 w=1.48u l=130.00n ng=2
MP0 net1 B1 net3 VDD sg13_lv_pmos m=1 w=1.000u l=130.00n ng=1
MP1 net3 A1 VDD VDD sg13_lv_pmos m=1 w=1.000u l=130.00n ng=1
MP2 net3 A2 VDD VDD sg13_lv_pmos m=1 w=1.000u l=130.00n ng=1
MP3 X net1 VDD VDD sg13_lv_pmos m=1 w=2.24u l=130.00n ng=2
.ENDS

************************************************************************
* Library Name: sg13g2_stdcell
* Cell Name:    sg13g2_a21oi_1
* View Name:    schematic
************************************************************************

.SUBCKT sg13g2_a21oi_1 Y A1 A2 B1 VDD VSS
*.PININFO A1:I A2:I B1:I Y:O VDD:B VSS:B
MMNB0 Y B1 VSS VSS sg13_lv_nmos m=1 w=740.00n l=130.00n ng=1
MMNA1 sndA1 A2 VSS VSS sg13_lv_nmos m=1 w=740.00n l=130.00n ng=1
MMNA0 Y A1 sndA1 VSS sg13_lv_nmos m=1 w=740.00n l=130.00n ng=1
MMPB0 Y B1 pndA VDD sg13_lv_pmos m=1 w=1.12u l=130.00n ng=1
MMPA1 pndA A2 VDD VDD sg13_lv_pmos m=1 w=1.12u l=130.00n ng=1
MMPA0 pndA A1 VDD VDD sg13_lv_pmos m=1 w=1.12u l=130.00n ng=1
.ENDS

************************************************************************
* Library Name: sg13g2_stdcell
* Cell Name:    sg13g2_a21oi_2
* View Name:    schematic
************************************************************************

.SUBCKT sg13g2_a21oi_2 Y A1 A2 B1 VDD VSS
*.PININFO A1:I A2:I B1:I Y:O VDD:B VSS:B
MMNB0 Y B1 VSS VSS sg13_lv_nmos m=1 w=1.48u l=130.00n ng=2
MMNA1 sndA1 A2 VSS VSS sg13_lv_nmos m=1 w=1.48u l=130.00n ng=2
MMNA0 Y A1 sndA1 VSS sg13_lv_nmos m=1 w=1.48u l=130.00n ng=2
MMPB0 Y B1 pndA VDD sg13_lv_pmos m=1 w=2.24u l=130.00n ng=2
MMPA1 pndA A2 VDD VDD sg13_lv_pmos m=1 w=2.24u l=130.00n ng=2
MMPA0 pndA A1 VDD VDD sg13_lv_pmos m=1 w=2.24u l=130.00n ng=2
.ENDS

************************************************************************
* Library Name: sg13g2_stdcell
* Cell Name:    sg13g2_a221oi_1
* View Name:    schematic
************************************************************************

.SUBCKT sg13g2_a221oi_1 Y A1 A2 B1 B2 C1 VDD VSS
*.PININFO A1:I A2:I B1:I B2:I C1:I Y:O VDD:B VSS:B
MMPC0 Y C1 pndB VDD sg13_lv_pmos m=1 w=1.12u l=130.00n ng=1
MMPB1 pndB B2 pndA VDD sg13_lv_pmos m=1 w=1.12u l=130.00n ng=1
MMPB0 pndB B1 pndA VDD sg13_lv_pmos m=1 w=1.12u l=130.00n ng=1
MMPA1 pndA A2 VDD VDD sg13_lv_pmos m=1 w=1.12u l=130.00n ng=1
MMPA0 pndA A1 VDD VDD sg13_lv_pmos m=1 w=1.12u l=130.00n ng=1
MMNC0 Y C1 VSS VSS sg13_lv_nmos m=1 w=740.00n l=130.00n ng=1
MMNB1 sndB1 B2 VSS VSS sg13_lv_nmos m=1 w=740.00n l=130.00n ng=1
MMNB0 Y B1 sndB1 VSS sg13_lv_nmos m=1 w=740.00n l=130.00n ng=1
MMNA1 sndA1 A2 VSS VSS sg13_lv_nmos m=1 w=740.00n l=130.00n ng=1
MMNA0 Y A1 sndA1 VSS sg13_lv_nmos m=1 w=740.00n l=130.00n ng=1
.ENDS

************************************************************************
* Library Name: sg13g2_stdcell
* Cell Name:    sg13g2_and2_1
* View Name:    schematic
************************************************************************

.SUBCKT sg13g2_and2_1 X A B VDD VSS
*.PININFO A:I B:I X:O VDD:B VSS:B
MX0 net4 A net2 VSS sg13_lv_nmos m=1 w=640.00n l=130.00n ng=1
MX2 X net4 VSS VSS sg13_lv_nmos m=1 w=740.00n l=130.00n ng=1
MX3 net2 B VSS VSS sg13_lv_nmos m=1 w=640.00n l=130.00n ng=1
MX1 net4 B VDD VDD sg13_lv_pmos m=1 w=840.00n l=130.00n ng=1
MX4 X net4 VDD VDD sg13_lv_pmos m=1 w=1.12u l=130.00n ng=1
MX5 net4 A VDD VDD sg13_lv_pmos m=1 w=840.00n l=130.00n ng=1
.ENDS

************************************************************************
* Library Name: sg13g2_stdcell
* Cell Name:    sg13g2_and2_2
* View Name:    schematic
************************************************************************

.SUBCKT sg13g2_and2_2 X A B VDD VSS
*.PININFO A:I B:I X:O VDD:B VSS:B
MX0 net4 A net2 VSS sg13_lv_nmos m=1 w=640.00n l=130.00n ng=1
MX2 X net4 VSS VSS sg13_lv_nmos m=1 w=1.48u l=130.00n ng=2
MX3 net2 B VSS VSS sg13_lv_nmos m=1 w=640.00n l=130.00n ng=1
MX1 net4 B VDD VDD sg13_lv_pmos m=1 w=840.00n l=130.00n ng=1
MX4 X net4 VDD VDD sg13_lv_pmos m=1 w=2.24u l=130.00n ng=2
MX5 net4 A VDD VDD sg13_lv_pmos m=1 w=840.00n l=130.00n ng=1
.ENDS

************************************************************************
* Library Name: sg13g2_stdcell
* Cell Name:    sg13g2_and3_1
* View Name:    schematic
************************************************************************

.SUBCKT sg13g2_and3_1 X A B C VDD VSS
*.PININFO A:I B:I C:I X:O VDD:B VSS:B
MX0 net3 C VSS VSS sg13_lv_nmos m=1 w=640.00n l=130.00n ng=1
MX2 X net2 VSS VSS sg13_lv_nmos m=1 w=740.00n l=130.00n ng=1
MX5 net2 A net1 VSS sg13_lv_nmos m=1 w=640.00n l=130.00n ng=1
MX6 net1 B net3 VSS sg13_lv_nmos m=1 w=640.00n l=130.00n ng=1
MX3 X net2 VDD VDD sg13_lv_pmos m=1 w=1.12u l=130.00n ng=1
MX1 net2 B VDD VDD sg13_lv_pmos m=1 w=840.00n l=130.00n ng=1
MX4 net2 A VDD VDD sg13_lv_pmos m=1 w=840.00n l=130.00n ng=1
MX7 net2 C VDD VDD sg13_lv_pmos m=1 w=840.00n l=130.00n ng=1
.ENDS

************************************************************************
* Library Name: sg13g2_stdcell
* Cell Name:    sg13g2_and3_2
* View Name:    schematic
************************************************************************

.SUBCKT sg13g2_and3_2 X A B C VDD VSS
*.PININFO A:I B:I C:I X:O VDD:B VSS:B
MX0 net3 C VSS VSS sg13_lv_nmos m=1 w=640.00n l=130.00n ng=1
MX2 X net2 VSS VSS sg13_lv_nmos m=1 w=1.48u l=130.00n ng=2
MX5 net2 A net1 VSS sg13_lv_nmos m=1 w=640.00n l=130.00n ng=1
MX6 net1 B net3 VSS sg13_lv_nmos m=1 w=640.00n l=130.00n ng=1
MX3 X net2 VDD VDD sg13_lv_pmos m=1 w=2.24u l=130.00n ng=2
MX1 net2 B VDD VDD sg13_lv_pmos m=1 w=840.00n l=130.00n ng=1
MX4 net2 A VDD VDD sg13_lv_pmos m=1 w=840.00n l=130.00n ng=1
MX7 net2 C VDD VDD sg13_lv_pmos m=1 w=840.00n l=130.00n ng=1
.ENDS

************************************************************************
* Library Name: sg13g2_stdcell
* Cell Name:    sg13g2_and4_1
* View Name:    schematic
************************************************************************

.SUBCKT sg13g2_and4_1 X A B C D VDD VSS
*.PININFO A:I B:I C:I D:I X:O VDD:B VSS:B
MN4 net17 D VSS VSS sg13_lv_nmos m=1 w=640.00n l=130.00n ng=1
MN3 net16 C net17 VSS sg13_lv_nmos m=1 w=640.00n l=130.00n ng=1
MN2 net15 B net16 VSS sg13_lv_nmos m=1 w=640.00n l=130.00n ng=1
MN1 net1 A net15 VSS sg13_lv_nmos m=1 w=640.00n l=130.00n ng=1
MN0 X net1 VSS VSS sg13_lv_nmos m=1 w=740.00n l=130.00n ng=1
MP0 net1 A VDD VDD sg13_lv_pmos m=1 w=840.00n l=130.00n ng=1
MP4 X net1 VDD VDD sg13_lv_pmos m=1 w=1.12u l=130.00n ng=1
MP3 net1 D VDD VDD sg13_lv_pmos m=1 w=840.00n l=130.00n ng=1
MP2 net1 C VDD VDD sg13_lv_pmos m=1 w=840.00n l=130.00n ng=1
MP1 net1 B VDD VDD sg13_lv_pmos m=1 w=840.00n l=130.00n ng=1
.ENDS

************************************************************************
* Library Name: sg13g2_stdcell
* Cell Name:    sg13g2_and4_2
* View Name:    schematic
************************************************************************

.SUBCKT sg13g2_and4_2 X A B C D VDD VSS
*.PININFO A:I B:I C:I D:I X:O VDD:B VSS:B
MN4 net17 D VSS VSS sg13_lv_nmos m=1 w=640.00n l=130.00n ng=1
MN3 net16 C net17 VSS sg13_lv_nmos m=1 w=640.00n l=130.00n ng=1
MN2 net15 B net16 VSS sg13_lv_nmos m=1 w=640.00n l=130.00n ng=1
MN1 net1 A net15 VSS sg13_lv_nmos m=1 w=640.00n l=130.00n ng=1
MN0 X net1 VSS VSS sg13_lv_nmos m=1 w=1.48u l=130.00n ng=2
MP0 net1 A VDD VDD sg13_lv_pmos m=1 w=840.00n l=130.00n ng=1
MP4 X net1 VDD VDD sg13_lv_pmos m=1 w=2.24u l=130.00n ng=2
MP3 net1 D VDD VDD sg13_lv_pmos m=1 w=840.00n l=130.00n ng=1
MP2 net1 C VDD VDD sg13_lv_pmos m=1 w=840.00n l=130.00n ng=1
MP1 net1 B VDD VDD sg13_lv_pmos m=1 w=840.00n l=130.00n ng=1
.ENDS

************************************************************************
* Library Name: sg13g2_stdcell
* Cell Name:    sg13g2_antennanp
* View Name:    schematic
************************************************************************

.SUBCKT sg13g2_antennanp A VDD VSS
*.PININFO A:I VDD:B VSS:B
Ddn_1 VSS A dantenna m=1 w=780n l=780n a=608.4f p=3.12u
DD0 A VDD dpantenna m=1 w=1.05u l=1.34u a=1.407p p=4.78u
.ENDS

************************************************************************
* Library Name: sg13g2_stdcell
* Cell Name:    sg13g2_buf_1
* View Name:    schematic
************************************************************************

.SUBCKT sg13g2_buf_1 X A VDD VSS
*.PININFO A:I X:O VDD:B VSS:B
MN1 net1 A VSS VSS sg13_lv_nmos m=1 w=550.00n l=130.00n ng=1
MN0 X net1 VSS VSS sg13_lv_nmos m=1 w=740.00n l=130.00n ng=1
MP1 X net1 VDD VDD sg13_lv_pmos m=1 w=1.12u l=130.00n ng=1
MP0 net1 A VDD VDD sg13_lv_pmos m=1 w=840.00n l=130.00n ng=1
.ENDS

************************************************************************
* Library Name: sg13g2_stdcell
* Cell Name:    sg13g2_buf_16
* View Name:    schematic
************************************************************************

.SUBCKT sg13g2_buf_16 X A VDD VSS
*.PININFO A:I X:O VDD:B VSS:B
MN1 net1 A VSS VSS sg13_lv_nmos m=1 w=4.44u l=130.00n ng=6
MN0 X net1 VSS VSS sg13_lv_nmos m=1 w=11.84u l=130.00n ng=16
MP1 X net1 VDD VDD sg13_lv_pmos m=1 w=17.92u l=130.00n ng=16
MP0 net1 A VDD VDD sg13_lv_pmos m=1 w=6.72u l=130.00n ng=6
.ENDS

************************************************************************
* Library Name: sg13g2_stdcell
* Cell Name:    sg13g2_buf_2
* View Name:    schematic
************************************************************************

.SUBCKT sg13g2_buf_2 X A VDD VSS
*.PININFO A:I X:O VDD:B VSS:B
MN1 net1 A VSS VSS sg13_lv_nmos m=1 w=640.00n l=130.00n ng=1
MN0 X net1 VSS VSS sg13_lv_nmos m=1 w=1.48u l=130.00n ng=2
MP1 X net1 VDD VDD sg13_lv_pmos m=1 w=2.24u l=130.00n ng=2
MP0 net1 A VDD VDD sg13_lv_pmos m=1 w=1.000u l=130.00n ng=1
.ENDS

************************************************************************
* Library Name: sg13g2_stdcell
* Cell Name:    sg13g2_buf_4
* View Name:    schematic
************************************************************************

.SUBCKT sg13g2_buf_4 X A VDD VSS
*.PININFO A:I X:O VDD:B VSS:B
MN1 net1 A VSS VSS sg13_lv_nmos m=1 w=740.00n l=130.00n ng=1
MN0 X net1 VSS VSS sg13_lv_nmos m=1 w=2.96u l=130.00n ng=4
MP1 X net1 VDD VDD sg13_lv_pmos m=1 w=4.48u l=130.00n ng=4
MP0 net1 A VDD VDD sg13_lv_pmos m=1 w=1.68u l=130.00n ng=2
.ENDS

************************************************************************
* Library Name: sg13g2_stdcell
* Cell Name:    sg13g2_buf_8
* View Name:    schematic
************************************************************************

.SUBCKT sg13g2_buf_8 X A VDD VSS
*.PININFO A:I X:O VDD:B VSS:B
MN1 net1 A VSS VSS sg13_lv_nmos m=1 w=2.22u l=130.00n ng=3
MN0 X net1 VSS VSS sg13_lv_nmos m=1 w=5.92u l=130.00n ng=8
MP1 X net1 VDD VDD sg13_lv_pmos m=1 w=8.96u l=130.00n ng=8
MP0 net1 A VDD VDD sg13_lv_pmos m=1 w=3.36u l=130.00n ng=3
.ENDS

************************************************************************
* Library Name: sg13g2_stdcell
* Cell Name:    sg13g2_decap_4
* View Name:    schematic
************************************************************************

.SUBCKT sg13g2_decap_4 VDD VSS
*.PININFO VDD:B VSS:B
MX1 VSS VDD VSS VSS sg13_lv_nmos m=1 w=420.00n l=1.000u ng=1
MX0 VDD VSS VDD VDD sg13_lv_pmos m=1 w=1.000u l=1.000u ng=1
.ENDS

************************************************************************
* Library Name: sg13g2_stdcell
* Cell Name:    sg13g2_decap_8
* View Name:    schematic
************************************************************************

.SUBCKT sg13g2_decap_8 VDD VSS
*.PININFO VDD:B VSS:B
MX1 VSS VDD VSS VSS sg13_lv_nmos m=1 w=840.00n l=1.000u ng=2
MX0 VDD VSS VDD VDD sg13_lv_pmos m=1 w=2.000u l=1.000u ng=2
.ENDS

************************************************************************
* Library Name: sg13g2_stdcell
* Cell Name:    sg13g2_dfrbp_1
* View Name:    schematic
************************************************************************

.SUBCKT sg13g2_dfrbp_1 Q Q_N CLK D RESET_B VDD VSS
*.PININFO CLK:I D:I RESET_B:I Q:O Q_N:O VDD:B VSS:B
MN13 net12 net2 VSS VSS sg13_lv_nmos m=1 w=420.00n l=130.00n ng=1
MN14 net5 clkneg net12 VSS sg13_lv_nmos m=1 w=420.00n l=130.00n ng=1
MN15 net2 net5 net11 VSS sg13_lv_nmos m=1 w=420.00n l=130.00n ng=1
MN16 net11 RESET_B VSS VSS sg13_lv_nmos m=1 w=420.00n l=130.00n ng=1
MN6 Q_N net5 VSS VSS sg13_lv_nmos m=1 w=740.00n l=130.00n ng=1
MN0 Db D net10 VSS sg13_lv_nmos m=1 w=420.00n l=130.00n ng=1
MN1 net10 RESET_B VSS VSS sg13_lv_nmos m=1 w=420.00n l=130.00n ng=1
MN7 Db clkneg net6 VSS sg13_lv_nmos m=1 w=420.00n l=130.00n ng=1
MN8 net6 clkpos net9 VSS sg13_lv_nmos m=1 w=420.00n l=130.00n ng=1
MN9 net9 net4 net8 VSS sg13_lv_nmos m=1 w=420.00n l=130.00n ng=1
MN10 net8 RESET_B VSS VSS sg13_lv_nmos m=1 w=420.00n l=130.00n ng=1
MN11 net4 net6 VSS VSS sg13_lv_nmos m=1 w=740.00n l=130.00n ng=1
MN2 clkneg CLK VSS VSS sg13_lv_nmos m=1 w=740.00n l=130.00n ng=1
MN12 net4 clkpos net5 VSS sg13_lv_nmos m=1 w=740.00n l=130.00n ng=1
MN3 clkpos clkneg VSS VSS sg13_lv_nmos m=1 w=740.00n l=130.00n ng=1
MN4 Q net1 VSS VSS sg13_lv_nmos m=1 w=740.00n l=130.00n ng=1
MN5 net1 net5 VSS VSS sg13_lv_nmos m=1 w=740.00n l=130.00n ng=1
MP14 net5 clkpos net3 VDD sg13_lv_pmos m=1 w=420.00n l=130.00n ng=1
MP15 net2 net5 VDD VDD sg13_lv_pmos m=1 w=420.00n l=130.00n ng=1
MP16 net2 RESET_B VDD VDD sg13_lv_pmos m=1 w=420.00n l=130.00n ng=1
MP6 Q_N net5 VDD VDD sg13_lv_pmos m=1 w=1.12u l=130.00n ng=1
MP7 Db clkpos net6 VDD sg13_lv_pmos m=1 w=420.00n l=130.00n ng=1
MP0 Db RESET_B VDD VDD sg13_lv_pmos m=1 w=420.00n l=130.00n ng=1
MP1 Db D VDD VDD sg13_lv_pmos m=1 w=420.00n l=130.00n ng=1
MP8 net7 net4 VDD VDD sg13_lv_pmos m=1 w=420.00n l=130.00n ng=1
MP9 net6 clkneg net7 VDD sg13_lv_pmos m=1 w=420.00n l=130.00n ng=1
MP10 net6 RESET_B VDD VDD sg13_lv_pmos m=1 w=420.00n l=130.00n ng=1
MP2 clkneg CLK VDD VDD sg13_lv_pmos m=1 w=1.12u l=130.00n ng=1
MP3 clkpos clkneg VDD VDD sg13_lv_pmos m=1 w=1.12u l=130.00n ng=1
MP11 net4 net6 VDD VDD sg13_lv_pmos m=1 w=1.000u l=130.00n ng=1
MP12 net4 clkneg net5 VDD sg13_lv_pmos m=1 w=1.000u l=130.00n ng=1
MP4 Q net1 VDD VDD sg13_lv_pmos m=1 w=1.12u l=130.00n ng=1
MP13 net3 net2 VDD VDD sg13_lv_pmos m=1 w=420.00n l=130.00n ng=1
MP5 net1 net5 VDD VDD sg13_lv_pmos m=1 w=1.12u l=130.00n ng=1
.ENDS

************************************************************************
* Library Name: sg13g2_stdcell
* Cell Name:    sg13g2_dfrbp_2
* View Name:    schematic
************************************************************************

.SUBCKT sg13g2_dfrbp_2 Q Q_N CLK D RESET_B VDD VSS
*.PININFO CLK:I D:I RESET_B:I Q:O Q_N:O VDD:B VSS:B
MN13 net12 net2 VSS VSS sg13_lv_nmos m=1 w=420.00n l=130.00n ng=1
MN14 net5 clkneg net12 VSS sg13_lv_nmos m=1 w=420.00n l=130.00n ng=1
MN15 net2 net5 net11 VSS sg13_lv_nmos m=1 w=420.00n l=130.00n ng=1
MN16 net11 RESET_B VSS VSS sg13_lv_nmos m=1 w=420.00n l=130.00n ng=1
MN6 Q_N net5 VSS VSS sg13_lv_nmos m=1 w=1.48u l=130.00n ng=2
MN0 Db D net10 VSS sg13_lv_nmos m=1 w=420.00n l=130.00n ng=1
MN1 net10 RESET_B VSS VSS sg13_lv_nmos m=1 w=420.00n l=130.00n ng=1
MN7 Db clkneg net6 VSS sg13_lv_nmos m=1 w=420.00n l=130.00n ng=1
MN8 net6 clkpos net9 VSS sg13_lv_nmos m=1 w=420.00n l=130.00n ng=1
MN9 net9 net4 net8 VSS sg13_lv_nmos m=1 w=420.00n l=130.00n ng=1
MN10 net8 RESET_B VSS VSS sg13_lv_nmos m=1 w=420.00n l=130.00n ng=1
MN11 net4 net6 VSS VSS sg13_lv_nmos m=1 w=740.00n l=130.00n ng=1
MN2 clkneg CLK VSS VSS sg13_lv_nmos m=1 w=740.00n l=130.00n ng=1
MN12 net4 clkpos net5 VSS sg13_lv_nmos m=1 w=740.00n l=130.00n ng=1
MN3 clkpos clkneg VSS VSS sg13_lv_nmos m=1 w=740.00n l=130.00n ng=1
MN4 Q net1 VSS VSS sg13_lv_nmos m=1 w=1.48u l=130.00n ng=2
MN5 net1 net5 VSS VSS sg13_lv_nmos m=1 w=640.00n l=130.00n ng=1
MP14 net5 clkpos net3 VDD sg13_lv_pmos m=1 w=420.00n l=130.00n ng=1
MP15 net2 net5 VDD VDD sg13_lv_pmos m=1 w=420.00n l=130.00n ng=1
MP16 net2 RESET_B VDD VDD sg13_lv_pmos m=1 w=420.00n l=130.00n ng=1
MP6 Q_N net5 VDD VDD sg13_lv_pmos m=1 w=2.24u l=130.00n ng=2
MP7 Db clkpos net6 VDD sg13_lv_pmos m=1 w=420.00n l=130.00n ng=1
MP0 Db RESET_B VDD VDD sg13_lv_pmos m=1 w=420.00n l=130.00n ng=1
MP1 Db D VDD VDD sg13_lv_pmos m=1 w=420.00n l=130.00n ng=1
MP8 net7 net4 VDD VDD sg13_lv_pmos m=1 w=420.00n l=130.00n ng=1
MP9 net6 clkneg net7 VDD sg13_lv_pmos m=1 w=420.00n l=130.00n ng=1
MP10 net6 RESET_B VDD VDD sg13_lv_pmos m=1 w=420.00n l=130.00n ng=1
MP2 clkneg CLK VDD VDD sg13_lv_pmos m=1 w=1.12u l=130.00n ng=1
MP3 clkpos clkneg VDD VDD sg13_lv_pmos m=1 w=1.12u l=130.00n ng=1
MP11 net4 net6 VDD VDD sg13_lv_pmos m=1 w=1.000u l=130.00n ng=1
MP12 net4 clkneg net5 VDD sg13_lv_pmos m=1 w=1.000u l=130.00n ng=1
MP4 Q net1 VDD VDD sg13_lv_pmos m=1 w=2.24u l=130.00n ng=2
MP13 net3 net2 VDD VDD sg13_lv_pmos m=1 w=420.00n l=130.00n ng=1
MP5 net1 net5 VDD VDD sg13_lv_pmos m=1 w=1.000u l=130.00n ng=1
.ENDS

************************************************************************
* Library Name: sg13g2_stdcell
* Cell Name:    sg13g2_dlhq_1
* View Name:    schematic
************************************************************************

.SUBCKT sg13g2_dlhq_1 Q D GATE VDD VSS
*.PININFO D:I GATE:I Q:O VDD:B VSS:B
MX17 Q qint_b VDD VDD sg13_lv_pmos m=1 w=1.12u l=130.00n ng=1
MX16 qint GATE_BB net8 VDD sg13_lv_pmos m=1 w=420.00n l=130.00n ng=1
MX14 qint_b qint VDD VDD sg13_lv_pmos m=1 w=1.12u l=130.00n ng=1
MX12 Db D VDD VDD sg13_lv_pmos m=1 w=840.00n l=130.00n ng=1
MX9 GATE_B GATE VDD VDD sg13_lv_pmos m=1 w=840.00n l=130.00n ng=1
MX7 GATE_BB GATE_B VDD VDD sg13_lv_pmos m=1 w=840.00n l=130.00n ng=1
MX4 net8 qint_b VDD VDD sg13_lv_pmos m=1 w=420.00n l=130.00n ng=1
MX3 net4 GATE_B qint VDD sg13_lv_pmos m=1 w=1.000u l=130.00n ng=1
MX1 net4 Db VDD VDD sg13_lv_pmos m=1 w=1.000u l=130.00n ng=1
MX15 GATE_B GATE VSS VSS sg13_lv_nmos m=1 w=740.00n l=130.00n ng=1
MX13 GATE_BB GATE_B VSS VSS sg13_lv_nmos m=1 w=740.00n l=130.00n ng=1
MX11 qint GATE_B net9 VSS sg13_lv_nmos m=1 w=420.00n l=130.00n ng=1
MX10 Q qint_b VSS VSS sg13_lv_nmos m=1 w=740.00n l=130.00n ng=1
MX8 net7 Db VSS VSS sg13_lv_nmos m=1 w=740.00n l=130.00n ng=1
MX6 net9 qint_b VSS VSS sg13_lv_nmos m=1 w=420.00n l=130.00n ng=1
MX5 qint_b qint VSS VSS sg13_lv_nmos m=1 w=740.00n l=130.00n ng=1
MX2 qint GATE_BB net7 VSS sg13_lv_nmos m=1 w=740.00n l=130.00n ng=1
MX0 Db D VSS VSS sg13_lv_nmos m=1 w=550.00n l=130.00n ng=1
.ENDS

************************************************************************
* Library Name: sg13g2_stdcell
* Cell Name:    sg13g2_dlhr_1
* View Name:    schematic
************************************************************************

.SUBCKT sg13g2_dlhr_1 Q Q_N D GATE RESET_B VDD VSS
*.PININFO D:I GATE:I RESET_B:I Q:O Q_N:O VDD:B VSS:B
MX0 qint_b RESET_B VDD VDD sg13_lv_pmos m=1 w=1.12u l=130.00n ng=1
MX9 Q qint_b VDD VDD sg13_lv_pmos m=1 w=1.12u l=130.00n ng=1
MX15 qint GATE_BB net11 VDD sg13_lv_pmos m=1 w=420.00n l=130.00n ng=1
MX6 net11 qint_b VDD VDD sg13_lv_pmos m=1 w=420.00n l=130.00n ng=1
MX10 qint GATE_B net2 VDD sg13_lv_pmos m=1 w=1.000u l=130.00n ng=1
MX18 net2 Db VDD VDD sg13_lv_pmos m=1 w=1.000u l=130.00n ng=1
MX13 Db D VDD VDD sg13_lv_pmos m=1 w=840.00n l=130.00n ng=1
MX5 GATE_B GATE VDD VDD sg13_lv_pmos m=1 w=840.00n l=130.00n ng=1
MX3 Q_N qintn_b VDD VDD sg13_lv_pmos m=1 w=1.12u l=130.00n ng=1
MX1 qint_b qint VDD VDD sg13_lv_pmos m=1 w=1.12u l=130.00n ng=1
MX20 GATE_BB GATE_B VDD VDD sg13_lv_pmos m=1 w=840.00n l=130.00n ng=1
MX2 qintn_b qint_b VDD VDD sg13_lv_pmos m=1 w=840.00n l=130.00n ng=1
MX12 qint_b qint net9 VSS sg13_lv_nmos m=1 w=740.00n l=130.00n ng=1
MX21 net9 RESET_B VSS VSS sg13_lv_nmos m=1 w=740.00n l=130.00n ng=1
MX11 qint GATE_B net7 VSS sg13_lv_nmos m=1 w=420.00n l=130.00n ng=1
MX14 net7 qint_b VSS VSS sg13_lv_nmos m=1 w=420.00n l=130.00n ng=1
MX7 Q qint_b VSS VSS sg13_lv_nmos m=1 w=740.00n l=130.00n ng=1
MX16 qint GATE_BB net1 VSS sg13_lv_nmos m=1 w=640.00n l=130.00n ng=1
MX23 net1 Db VSS VSS sg13_lv_nmos m=1 w=640.00n l=130.00n ng=1
MX4 Db D VSS VSS sg13_lv_nmos m=1 w=550.00n l=130.00n ng=1
MX19 GATE_B GATE VSS VSS sg13_lv_nmos m=1 w=740.00n l=130.00n ng=1
MX8 Q_N qintn_b VSS VSS sg13_lv_nmos m=1 w=740.00n l=130.00n ng=1
MX17 GATE_BB GATE_B VSS VSS sg13_lv_nmos m=1 w=740.00n l=130.00n ng=1
MX22 qintn_b qint_b VSS VSS sg13_lv_nmos m=1 w=550.00n l=130.00n ng=1
.ENDS

************************************************************************
* Library Name: sg13g2_stdcell
* Cell Name:    sg13g2_dlhrq_1
* View Name:    schematic
************************************************************************

.SUBCKT sg13g2_dlhrq_1 Q D GATE RESET_B VDD VSS
*.PININFO D:I GATE:I RESET_B:I Q:O VDD:B VSS:B
MX21 net116 RESET_B VSS VSS sg13_lv_nmos m=1 w=740.00n l=130.00n ng=1
MX7 Q qint_b VSS VSS sg13_lv_nmos m=1 w=740.00n l=130.00n ng=1
MX17 GATE_BB GATE_B VSS VSS sg13_lv_nmos m=1 w=740.00n l=130.00n ng=1
MX11 qint GATE_B net89 VSS sg13_lv_nmos m=1 w=420.00n l=130.00n ng=1
MX12 qint_b qint net116 VSS sg13_lv_nmos m=1 w=740.00n l=130.00n ng=1
MX4 Db D VSS VSS sg13_lv_nmos m=1 w=550.00n l=130.00n ng=1
MX23 net61 Db VSS VSS sg13_lv_nmos m=1 w=640.00n l=130.00n ng=1
MX16 qint GATE_BB net61 VSS sg13_lv_nmos m=1 w=640.00n l=130.00n ng=1
MX14 net89 qint_b VSS VSS sg13_lv_nmos m=1 w=420.00n l=130.00n ng=1
MX19 GATE_B GATE VSS VSS sg13_lv_nmos m=1 w=740.00n l=130.00n ng=1
MX18 net60 Db VDD VDD sg13_lv_pmos m=1 w=1.000u l=130.00n ng=1
MX0 qint_b RESET_B VDD VDD sg13_lv_pmos m=1 w=1.000u l=130.00n ng=1
MX15 qint GATE_BB net92 VDD sg13_lv_pmos m=1 w=420.00n l=130.00n ng=1
MX9 Q qint_b VDD VDD sg13_lv_pmos m=1 w=1.12u l=130.00n ng=1
MX6 net92 qint_b VDD VDD sg13_lv_pmos m=1 w=420.00n l=130.00n ng=1
MX5 GATE_B GATE VDD VDD sg13_lv_pmos m=1 w=840.00n l=130.00n ng=1
MX13 Db D VDD VDD sg13_lv_pmos m=1 w=840.00n l=130.00n ng=1
MX10 qint GATE_B net60 VDD sg13_lv_pmos m=1 w=1.000u l=130.00n ng=1
MX20 GATE_BB GATE_B VDD VDD sg13_lv_pmos m=1 w=840.00n l=130.00n ng=1
MX1 qint_b qint VDD VDD sg13_lv_pmos m=1 w=1.000u l=130.00n ng=1
.ENDS

************************************************************************
* Library Name: sg13g2_stdcell
* Cell Name:    sg13g2_dllr_1
* View Name:    schematic
************************************************************************

.SUBCKT sg13g2_dllr_1 Q Q_N D GATE_N RESET_B VDD VSS
*.PININFO D:I GATE_N:I RESET_B:I Q:O Q_N:O VDD:B VSS:B
MX4 Db D VSS VSS sg13_lv_nmos m=1 w=550.00n l=130.00n ng=1
MX19 gnb GATE_N VSS VSS sg13_lv_nmos m=1 w=740.00n l=130.00n ng=1
MX17 gnbb gnb VSS VSS sg13_lv_nmos m=1 w=740.00n l=130.00n ng=1
MX14 net89 qint_b VSS VSS sg13_lv_nmos m=1 w=420.00n l=130.00n ng=1
MX12 qint_b qint net116 VSS sg13_lv_nmos m=1 w=740.00n l=130.00n ng=1
MX21 net116 RESET_B VSS VSS sg13_lv_nmos m=1 w=740.00n l=130.00n ng=1
MX11 qint gnbb net89 VSS sg13_lv_nmos m=1 w=420.00n l=130.00n ng=1
MX8 Q_N qintn_b VSS VSS sg13_lv_nmos m=1 w=740.00n l=130.00n ng=1
MX16 qint gnb net61 VSS sg13_lv_nmos m=1 w=640.00n l=130.00n ng=1
MX22 qintn_b qint_b VSS VSS sg13_lv_nmos m=1 w=550.00n l=130.00n ng=1
MX23 net61 Db VSS VSS sg13_lv_nmos m=1 w=640.00n l=130.00n ng=1
MX7 Q qint_b VSS VSS sg13_lv_nmos m=1 w=740.00n l=130.00n ng=1
MX20 gnbb gnb VDD VDD sg13_lv_pmos m=1 w=840.00n l=130.00n ng=1
MX10 qint gnbb net60 VDD sg13_lv_pmos m=1 w=1.000u l=130.00n ng=1
MX2 qintn_b qint_b VDD VDD sg13_lv_pmos m=1 w=840.00n l=130.00n ng=1
MX3 Q_N qintn_b VDD VDD sg13_lv_pmos m=1 w=1.12u l=130.00n ng=1
MX18 net60 Db VDD VDD sg13_lv_pmos m=1 w=1.000u l=130.00n ng=1
MX6 net92 qint_b VDD VDD sg13_lv_pmos m=1 w=420.00n l=130.00n ng=1
MX0 qint_b RESET_B VDD VDD sg13_lv_pmos m=1 w=1.12u l=130.00n ng=1
MX13 Db D VDD VDD sg13_lv_pmos m=1 w=840.00n l=130.00n ng=1
MX5 gnb GATE_N VDD VDD sg13_lv_pmos m=1 w=840.00n l=130.00n ng=1
MX9 Q qint_b VDD VDD sg13_lv_pmos m=1 w=1.12u l=130.00n ng=1
MX15 qint gnb net92 VDD sg13_lv_pmos m=1 w=420.00n l=130.00n ng=1
MX1 qint_b qint VDD VDD sg13_lv_pmos m=1 w=1.12u l=130.00n ng=1
.ENDS

************************************************************************
* Library Name: sg13g2_stdcell
* Cell Name:    sg13g2_dllrq_1
* View Name:    schematic
************************************************************************

.SUBCKT sg13g2_dllrq_1 Q D GATE_N RESET_B VDD VSS
*.PININFO D:I GATE_N:I RESET_B:I Q:O VDD:B VSS:B
MX11 qint gnbb net89 VSS sg13_lv_nmos m=1 w=420.00n l=130.00n ng=1
MX16 qint gnb net61 VSS sg13_lv_nmos m=1 w=640.00n l=130.00n ng=1
MX21 net116 RESET_B VSS VSS sg13_lv_nmos m=1 w=740.00n l=130.00n ng=1
MX7 Q qint_b VSS VSS sg13_lv_nmos m=1 w=740.00n l=130.00n ng=1
MX23 net61 Db VSS VSS sg13_lv_nmos m=1 w=640.00n l=130.00n ng=1
MX14 net89 qint_b VSS VSS sg13_lv_nmos m=1 w=420.00n l=130.00n ng=1
MX12 qint_b qint net116 VSS sg13_lv_nmos m=1 w=740.00n l=130.00n ng=1
MX4 Db D VSS VSS sg13_lv_nmos m=1 w=550.00n l=130.00n ng=1
MX19 gnb GATE_N VSS VSS sg13_lv_nmos m=1 w=740.00n l=130.00n ng=1
MX17 gnbb gnb VSS VSS sg13_lv_nmos m=1 w=740.00n l=130.00n ng=1
MX18 net59 Db VDD VDD sg13_lv_pmos m=1 w=1.000u l=130.00n ng=1
MX0 qint_b RESET_B VDD VDD sg13_lv_pmos m=1 w=1.000u l=130.00n ng=1
MX5 gnb GATE_N VDD VDD sg13_lv_pmos m=1 w=840.00n l=130.00n ng=1
MX6 net92 qint_b VDD VDD sg13_lv_pmos m=1 w=420.00n l=130.00n ng=1
MX1 qint_b qint VDD VDD sg13_lv_pmos m=1 w=1.000u l=130.00n ng=1
MX9 Q qint_b VDD VDD sg13_lv_pmos m=1 w=1.12u l=130.00n ng=1
MX10 qint gnbb net59 VDD sg13_lv_pmos m=1 w=1.000u l=130.00n ng=1
MX13 Db D VDD VDD sg13_lv_pmos m=1 w=840.00n l=130.00n ng=1
MX20 gnbb gnb VDD VDD sg13_lv_pmos m=1 w=840.00n l=130.00n ng=1
MX15 qint gnb net92 VDD sg13_lv_pmos m=1 w=420.00n l=130.00n ng=1
.ENDS

************************************************************************
* Library Name: sg13g2_stdcell
* Cell Name:    sg13g2_dlygate4sd1_1
* View Name:    schematic
************************************************************************

.SUBCKT sg13g2_dlygate4sd1_1 X A VDD VSS
*.PININFO A:I X:O VDD:B VSS:B
MP3 X net3 VDD VDD sg13_lv_pmos m=1 w=1.12u l=130.00n ng=1
MP2 net3 net2 VDD VDD sg13_lv_pmos m=1 w=1.000u l=130.00n ng=1
MP1 net2 net1 VDD VDD sg13_lv_pmos m=1 w=1.000u l=130.00n ng=1
MP0 net1 A VDD VDD sg13_lv_pmos m=1 w=420.00n l=130.00n ng=1
MN3 X net3 VSS VSS sg13_lv_nmos m=1 w=740.00n l=130.00n ng=1
MN2 net3 net2 VSS VSS sg13_lv_nmos m=1 w=420.00n l=130.00n ng=1
MN1 net2 net1 VSS VSS sg13_lv_nmos m=1 w=420.00n l=130.00n ng=1
MN0 net1 A VSS VSS sg13_lv_nmos m=1 w=420.00n l=130.00n ng=1
.ENDS

************************************************************************
* Library Name: sg13g2_stdcell
* Cell Name:    sg13g2_dlygate4sd2_1
* View Name:    schematic
************************************************************************

.SUBCKT sg13g2_dlygate4sd2_1 X A VDD VSS
*.PININFO A:I X:O VDD:B VSS:B
MP3 X net3 VDD VDD sg13_lv_pmos m=1 w=1.12u l=130.00n ng=1
MP2 net3 net2 VDD VDD sg13_lv_pmos m=1 w=1.000u l=250.00n ng=1
MP1 net2 net1 VDD VDD sg13_lv_pmos m=1 w=1.000u l=250.00n ng=1
MP0 net1 A VDD VDD sg13_lv_pmos m=1 w=420.00n l=130.00n ng=1
MN3 X net3 VSS VSS sg13_lv_nmos m=1 w=740.00n l=130.00n ng=1
MN2 net3 net2 VSS VSS sg13_lv_nmos m=1 w=420.00n l=180.00n ng=1
MN1 net2 net1 VSS VSS sg13_lv_nmos m=1 w=420.00n l=180.00n ng=1
MN0 net1 A VSS VSS sg13_lv_nmos m=1 w=420.00n l=130.00n ng=1
.ENDS

************************************************************************
* Library Name: sg13g2_stdcell
* Cell Name:    sg13g2_dlygate4sd3_1
* View Name:    schematic
************************************************************************

.SUBCKT sg13g2_dlygate4sd3_1 X A VDD VSS
*.PININFO A:I X:O VDD:B VSS:B
MP3 X net3 VDD VDD sg13_lv_pmos m=1 w=1.12u l=130.00n ng=1
MP2 net3 net2 VDD VDD sg13_lv_pmos m=1 w=1.000u l=500.0n ng=1
MP1 net2 net1 VDD VDD sg13_lv_pmos m=1 w=1.000u l=500.0n ng=1
MP0 net1 A VDD VDD sg13_lv_pmos m=1 w=420.00n l=130.00n ng=1
MN3 X net3 VSS VSS sg13_lv_nmos m=1 w=740.00n l=130.00n ng=1
MN2 net3 net2 VSS VSS sg13_lv_nmos m=1 w=420.00n l=500.0n ng=1
MN1 net2 net1 VSS VSS sg13_lv_nmos m=1 w=420.00n l=500.0n ng=1
MN0 net1 A VSS VSS sg13_lv_nmos m=1 w=420.00n l=130.00n ng=1
.ENDS

************************************************************************
* Library Name: sg13g2_stdcell
* Cell Name:    sg13g2_ebufn_2
* View Name:    schematic
************************************************************************

.SUBCKT sg13g2_ebufn_2 Z A TE_B VDD VSS