************************************************************************
* 
* Copyright 2023 IHP PDK Authors
* 
* Licensed under the Apache License, Version 2.0 (the "License");
* you may not use this file except in compliance with the License.
* You may obtain a copy of the License at
* 
*    https://www.apache.org/licenses/LICENSE-2.0
* 
* Unless required by applicable law or agreed to in writing, software
* distributed under the License is distributed on an "AS IS" BASIS,
* WITHOUT WARRANTIES OR CONDITIONS OF ANY KIND, either express or implied.
* See the License for the specific language governing permissions and
* limitations under the License.
* 
************************************************************************
* auCdl Netlist:
* 
* Library Name:  sg13g2_stdcell
* Top Cell Name: sg13g2_stdcell_allcells
* View Name:     schematic
* Netlisted on:  Mar 29 14:17:55 2023
************************************************************************

*.BIPOLAR
*.RESI = 2000 
*.RESVAL
*.CAPVAL
*.DIOPERI
*.DIOAREA
*.EQUATION
*.SCALE METER
*.MEGA
.PARAM



************************************************************************
* Library Name: sg13g2_stdcell
* Cell Name:    sg13g2_and2_1
* View Name:    schematic
************************************************************************

.SUBCKT sg13g2_and2_1 A B VSS VDD X
*.PININFO A:B B:B VDD:B VSS:B X:B
MX0 a_56_136_ A a_143_136_ VSS sg13_lv_nmos m=1 w=640.00n l=130.00n ng=1
MX2 VSS a_56_136_ X VSS sg13_lv_nmos m=1 w=740.00n l=130.00n ng=1
MX3 a_143_136_ B VSS VSS sg13_lv_nmos m=1 w=640.00n l=130.00n ng=1
MX1 a_56_136_ B VDD VDD sg13_lv_pmos m=1 w=840.00n l=130.00n ng=1
MX4 VDD a_56_136_ X VDD sg13_lv_pmos m=1 w=1.12e-06 l=130.00n ng=1
MX5 VDD A a_56_136_ VDD sg13_lv_pmos m=1 w=840.00n l=130.00n ng=1
.ENDS

************************************************************************
* Library Name: sg13g2_stdcell
* Cell Name:    sg13g2_and3_1
* View Name:    schematic
************************************************************************

.SUBCKT sg13g2_and3_1 A B C VSS VDD X
*.PININFO A:B B:B C:B VDD:B VSS:B X:B
MX0 a_233_136_ C VSS VSS sg13_lv_nmos m=1 w=640.00n l=130.00n ng=1
MX2 VSS a_27_398_ X VSS sg13_lv_nmos m=1 w=740.00n l=130.00n ng=1
MX5 a_27_398_ A a_121_136_ VSS sg13_lv_nmos m=1 w=640.00n l=130.00n ng=1
MX6 a_121_136_ B a_233_136_ VSS sg13_lv_nmos m=1 w=640.00n l=130.00n ng=1
MX1 VDD B a_27_398_ VDD sg13_lv_pmos m=1 w=840.00n l=130.00n ng=1
MX3 VDD a_27_398_ X VDD sg13_lv_pmos m=1 w=1.12e-06 l=130.00n ng=1
MX4 a_27_398_ A VDD VDD sg13_lv_pmos m=1 w=840.00n l=130.00n ng=1
MX7 a_27_398_ C VDD VDD sg13_lv_pmos m=1 w=840.00n l=130.00n ng=1
.ENDS

************************************************************************
* Library Name: sg13g2_stdcell
* Cell Name:    sg13g2_and4_1
* View Name:    schematic
************************************************************************

.SUBCKT sg13g2_and4_1 A B C D VSS VDD X
*.PININFO A:B B:B C:B D:B VDD:B VSS:B X:B
MX0 a_96_74_ A a_179_74_ VSS sg13_lv_nmos m=1 w=640.00n l=130.00n ng=1
MX2 a_257_74_ C a_335_74_ VSS sg13_lv_nmos m=1 w=640.00n l=130.00n ng=1
MX4 VSS a_96_74_ X VSS sg13_lv_nmos m=1 w=740.00n l=130.00n ng=1
MX7 a_335_74_ D VSS VSS sg13_lv_nmos m=1 w=640.00n l=130.00n ng=1
MX8 a_179_74_ B a_257_74_ VSS sg13_lv_nmos m=1 w=640.00n l=130.00n ng=1
MX1 VDD a_96_74_ X VDD sg13_lv_pmos m=1 w=1.12e-06 l=130.00n ng=1
MX3 VDD A a_96_74_ VDD sg13_lv_pmos m=1 w=840.00n l=130.00n ng=1
MX5 VDD C a_96_74_ VDD sg13_lv_pmos m=1 w=840.00n l=130.00n ng=1
MX6 a_96_74_ B VDD VDD sg13_lv_pmos m=1 w=840.00n l=130.00n ng=1
MX9 a_96_74_ D VDD VDD sg13_lv_pmos m=1 w=840.00n l=130.00n ng=1
.ENDS

************************************************************************
* Library Name: sg13g2_stdcell
* Cell Name:    sg13g2_buf_1
* View Name:    schematic
************************************************************************

.SUBCKT sg13g2_buf_1 A VDD VSS X
*.PININFO A:I X:O VDD:B VSS:B
MN1 net1 A VSS VSS sg13_lv_nmos m=1 w=550.00n l=130.00n ng=1
MN0 X net1 VSS VSS sg13_lv_nmos m=1 w=740.00n l=130.00n ng=1
MP1 X net1 VDD VDD sg13_lv_pmos m=1 w=1.12u l=130.00n ng=1
MP0 net1 A VDD VDD sg13_lv_pmos m=1 w=840.00n l=130.00n ng=1
.ENDS

************************************************************************
* Library Name: sg13g2_stdcell
* Cell Name:    sg13g2_buf_16
* View Name:    schematic
************************************************************************

.SUBCKT sg13g2_buf_16 A VDD VSS X
*.PININFO A:I X:O VDD:B VSS:B
MN1 net1 A VSS VSS sg13_lv_nmos m=1 w=4.44u l=130.00n ng=6
MN0 X net1 VSS VSS sg13_lv_nmos m=1 w=11.84u l=130.00n ng=16
MP1 X net1 VDD VDD sg13_lv_pmos m=1 w=17.92u l=130.00n ng=16
MP0 net1 A VDD VDD sg13_lv_pmos m=1 w=6.72u l=130.00n ng=6
.ENDS

************************************************************************
* Library Name: sg13g2_stdcell
* Cell Name:    sg13g2_buf_2
* View Name:    schematic
************************************************************************

.SUBCKT sg13g2_buf_2 A VDD VSS X
*.PININFO A:I X:O VDD:B VSS:B
MN1 net1 A VSS VSS sg13_lv_nmos m=1 w=640.00n l=130.00n ng=1
MN0 X net1 VSS VSS sg13_lv_nmos m=1 w=1.48u l=130.00n ng=2
MP1 X net1 VDD VDD sg13_lv_pmos m=1 w=2.24u l=130.00n ng=2
MP0 net1 A VDD VDD sg13_lv_pmos m=1 w=1.000u l=130.00n ng=1
.ENDS

************************************************************************
* Library Name: sg13g2_stdcell
* Cell Name:    sg13g2_buf_4
* View Name:    schematic
************************************************************************

.SUBCKT sg13g2_buf_4 A VDD VSS X
*.PININFO A:I X:O VDD:B VSS:B
MN1 net1 A VSS VSS sg13_lv_nmos m=1 w=740.00n l=130.00n ng=1
MN0 X net1 VSS VSS sg13_lv_nmos m=1 w=2.96u l=130.00n ng=4
MP1 X net1 VDD VDD sg13_lv_pmos m=1 w=4.48u l=130.00n ng=4
MP0 net1 A VDD VDD sg13_lv_pmos m=1 w=1.68u l=130.00n ng=2
.ENDS

************************************************************************
* Library Name: sg13g2_stdcell
* Cell Name:    sg13g2_buf_8
* View Name:    schematic
************************************************************************

.SUBCKT sg13g2_buf_8 A VDD VSS X
*.PININFO A:I X:O VDD:B VSS:B
MN1 net1 A VSS VSS sg13_lv_nmos m=1 w=2.22u l=130.00n ng=3
MN0 X net1 VSS VSS sg13_lv_nmos m=1 w=5.92u l=130.00n ng=8
MP1 X net1 VDD VDD sg13_lv_pmos m=1 w=8.96u l=130.00n ng=8
MP0 net1 A VDD VDD sg13_lv_pmos m=1 w=3.36u l=130.00n ng=3
.ENDS

************************************************************************
* Library Name: sg13g2_stdcell
* Cell Name:    sg13g2_dfrbp_2
* View Name:    schematic
************************************************************************

.SUBCKT sg13g2_dfrbp_2 CLK D RESET_B VSS VDD Q Q_N
*.PININFO CLK:B D:B Q:B Q_N:B RESET_B:B VDD:B VSS:B
MX28 VDD D a_70_74_ VDD sg13_lv_pmos m=1 w=420.00n l=130.00n ng=1
MX15 a_1755_389_ a_1800_291_ VDD VDD sg13_lv_pmos m=1 w=420.00n l=130.00n ng=1
MX20 a_1586_149_ a_818_418_ a_1755_389_ VDD sg13_lv_pmos m=1 w=420.00n 
+ l=130.00n ng=1
MX19 VDD a_331_392_ a_683_485_ VDD sg13_lv_pmos m=1 w=420.00n l=130.00n ng=1
MX37 a_683_485_ a_728_331_ a_298_294_ VDD sg13_lv_pmos m=1 w=420.00n l=130.00n 
+ ng=1
MX23 VDD CLK a_728_331_ VDD sg13_lv_pmos m=1 w=1.12e-06 l=130.00n ng=1
MX3 a_1800_291_ a_1586_149_ VDD VDD sg13_lv_pmos m=1 w=420.00n l=130.00n ng=1
MX35 VDD RESET_B a_1800_291_ VDD sg13_lv_pmos m=1 w=420.00n l=130.00n ng=1
MX5 a_818_418_ a_728_331_ VDD VDD sg13_lv_pmos m=1 w=1.12e-06 l=130.00n ng=1
MX22 a_298_294_ a_818_418_ a_70_74_ VDD sg13_lv_pmos m=1 w=420.00n l=130.00n 
+ ng=1
MX33 a_331_392_ a_728_331_ a_1586_149_ VDD sg13_lv_pmos m=1 w=1.000u l=130.00n 
+ ng=1
MX32 VDD a_298_294_ a_331_392_ VDD sg13_lv_pmos m=1 w=1.000u l=130.00n ng=1
MX4 a_298_294_ RESET_B VDD VDD sg13_lv_pmos m=1 w=420.00n l=130.00n ng=1
MX27 a_70_74_ RESET_B VDD VDD sg13_lv_pmos m=1 w=420.00n l=130.00n ng=1
MX31 Q_N a_1586_149_ VDD VDD sg13_lv_pmos m=1 w=1.12e-06 l=130.00n ng=1
MX13 VDD a_1586_149_ Q_N VDD sg13_lv_pmos m=1 w=1.12e-06 l=130.00n ng=1
MX24 VDD a_1586_149_ a_2363_352_ VDD sg13_lv_pmos m=1 w=1.000u l=130.00n ng=1
MX25 Q a_2363_352_ VDD VDD sg13_lv_pmos m=1 w=1.12e-06 l=130.00n ng=1
MX6 VDD a_2363_352_ Q VDD sg13_lv_pmos m=1 w=1.12e-06 l=130.00n ng=1
MX30 VSS RESET_B a_536_81_ VSS sg13_lv_nmos m=1 w=420.00n l=130.00n ng=1
MX34 a_536_81_ a_331_392_ a_614_81_ VSS sg13_lv_nmos m=1 w=420.00n l=130.00n 
+ ng=1
MX29 a_298_294_ a_818_418_ a_614_81_ VSS sg13_lv_nmos m=1 w=420.00n l=130.00n 
+ ng=1
MX0 a_156_74_ RESET_B VSS VSS sg13_lv_nmos m=1 w=420.00n l=130.00n ng=1
MX17 a_70_74_ D a_156_74_ VSS sg13_lv_nmos m=1 w=420.00n l=130.00n ng=1
MX36 a_1499_149_ a_728_331_ a_1586_149_ VSS sg13_lv_nmos m=1 w=420.00n 
+ l=130.00n ng=1
MX11 a_1499_149_ a_1800_291_ VSS VSS sg13_lv_nmos m=1 w=420.00n l=130.00n ng=1
MX21 a_1974_74_ a_1586_149_ a_1800_291_ VSS sg13_lv_nmos m=1 w=420.00n 
+ l=130.00n ng=1
MX14 VSS RESET_B a_1974_74_ VSS sg13_lv_nmos m=1 w=420.00n l=130.00n ng=1
MX12 VSS CLK a_728_331_ VSS sg13_lv_nmos m=1 w=740.00n l=130.00n ng=1
MX2 a_818_418_ a_728_331_ VSS VSS sg13_lv_nmos m=1 w=740.00n l=130.00n ng=1
MX26 VSS a_298_294_ a_331_392_ VSS sg13_lv_nmos m=1 w=740.00n l=130.00n ng=1
MX8 a_1586_149_ a_818_418_ a_331_392_ VSS sg13_lv_nmos m=1 w=740.00n l=130.00n 
+ ng=1
MX1 a_70_74_ a_728_331_ a_298_294_ VSS sg13_lv_nmos m=1 w=420.00n l=130.00n 
+ ng=1
MX18 Q_N a_1586_149_ VSS VSS sg13_lv_nmos m=1 w=740.00n l=130.00n ng=1
MX16 VSS a_1586_149_ Q_N VSS sg13_lv_nmos m=1 w=740.00n l=130.00n ng=1
MX9 VSS a_1586_149_ a_2363_352_ VSS sg13_lv_nmos m=1 w=640.00n l=130.00n ng=1
MX10 Q a_2363_352_ VSS VSS sg13_lv_nmos m=1 w=740.00n l=130.00n ng=1
MX7 VSS a_2363_352_ Q VSS sg13_lv_nmos m=1 w=740.00n l=130.00n ng=1
.ENDS

************************************************************************
* Library Name: sg13g2_stdcell
* Cell Name:    sg13g2_dlygate4sd1_1
* View Name:    schematic
************************************************************************

.SUBCKT sg13g2_dlygate4sd1_1 A VSS VDD X
*.PININFO A:B VDD:B VSS:B X:B
MX0 VDD a_405_138_ X VDD sg13_lv_pmos m=1 w=1.12e-06 l=130.00n ng=1
MX1 VDD a_28_74_ a_286_392_ VDD sg13_lv_pmos m=1 w=1.000u l=130.00n ng=1
MX4 a_405_138_ a_286_392_ VDD VDD sg13_lv_pmos m=1 w=1.000u l=130.00n ng=1
MX5 a_28_74_ A VDD VDD sg13_lv_pmos m=1 w=420.00n l=130.00n ng=1
MX2 a_28_74_ A VSS VSS sg13_lv_nmos m=1 w=420.00n l=130.00n ng=1
MX3 VSS a_405_138_ X VSS sg13_lv_nmos m=1 w=740.00n l=130.00n ng=1
MX6 a_405_138_ a_286_392_ VSS VSS sg13_lv_nmos m=1 w=420.00n l=130.00n ng=1
MX7 VSS a_28_74_ a_286_392_ VSS sg13_lv_nmos m=1 w=420.00n l=130.00n ng=1
.ENDS

************************************************************************
* Library Name: sg13g2_stdcell
* Cell Name:    sg13g2_dlygate4sd2_1
* View Name:    schematic
************************************************************************

.SUBCKT sg13g2_dlygate4sd2_1 A VSS VDD X
*.PININFO A:B VDD:B VSS:B X:B
MX0 VDD a_405_138_ X VDD sg13_lv_pmos m=1 w=1.12e-06 l=130.00n ng=1
MX1 VDD a_28_74_ a_288_74_ VDD sg13_lv_pmos m=1 w=1.000u l=250.00n ng=1
MX2 a_405_138_ a_288_74_ VDD VDD sg13_lv_pmos m=1 w=1.000u l=250.00n ng=1
MX6 a_28_74_ A VDD VDD sg13_lv_pmos m=1 w=420.00n l=130.00n ng=1
MX3 VSS a_28_74_ a_288_74_ VSS sg13_lv_nmos m=1 w=420.00n l=180.00n ng=1
MX4 a_28_74_ A VSS VSS sg13_lv_nmos m=1 w=420.00n l=130.00n ng=1
MX5 VSS a_405_138_ X VSS sg13_lv_nmos m=1 w=740.00n l=130.00n ng=1
MX7 a_405_138_ a_288_74_ VSS VSS sg13_lv_nmos m=1 w=420.00n l=180.00n ng=1
.ENDS

************************************************************************
* Library Name: sg13g2_stdcell
* Cell Name:    sg13g2_dlygate4sd3_1
* View Name:    schematic
************************************************************************

.SUBCKT sg13g2_dlygate4sd3_1 A VSS VDD X
*.PININFO A:B VDD:B VSS:B X:B
MX0 a_405_138_ a_289_74_ VDD VDD sg13_lv_pmos m=1 w=1.000u l=500.0n ng=1
MX1 VDD a_405_138_ X VDD sg13_lv_pmos m=1 w=1.12e-06 l=130.00n ng=1
MX6 a_28_74_ A VDD VDD sg13_lv_pmos m=1 w=420.00n l=130.00n ng=1
MX7 VDD a_28_74_ a_289_74_ VDD sg13_lv_pmos m=1 w=1.000u l=500.0n ng=1
MX2 VSS a_28_74_ a_289_74_ VSS sg13_lv_nmos m=1 w=420.00n l=500.0n ng=1
MX3 a_405_138_ a_289_74_ VSS VSS sg13_lv_nmos m=1 w=420.00n l=500.0n ng=1
MX4 a_28_74_ A VSS VSS sg13_lv_nmos m=1 w=420.00n l=130.00n ng=1
MX5 VSS a_405_138_ X VSS sg13_lv_nmos m=1 w=740.00n l=130.00n ng=1
.ENDS

************************************************************************
* Library Name: sg13g2_stdcell
* Cell Name:    sg13g2_inv_1
* View Name:    schematic
************************************************************************

.SUBCKT sg13g2_inv_1 A VDD VSS Y
*.PININFO A:B VDD:B VSS:B Y:B
MX1 VSS A Y VSS sg13_lv_nmos m=1 w=740.00n l=130.00n ng=1
MX0 VDD A Y VDD sg13_lv_pmos m=1 w=1.12u l=130.00n ng=1
.ENDS

************************************************************************
* Library Name: sg13g2_stdcell
* Cell Name:    sg13g2_inv_16
* View Name:    schematic
************************************************************************

.SUBCKT sg13g2_inv_16 A VSS VDD Y
*.PININFO A:B VDD:B VSS:B Y:B
MX30 Y A VSS VSS sg13_lv_nmos m=1 w=740.00n l=130.00n ng=1
MX29 Y A VSS VSS sg13_lv_nmos m=1 w=740.00n l=130.00n ng=1
MX27 VSS A Y VSS sg13_lv_nmos m=1 w=740.00n l=130.00n ng=1
MX22 Y A VSS VSS sg13_lv_nmos m=1 w=740.00n l=130.00n ng=1
MX21 Y A VSS VSS sg13_lv_nmos m=1 w=740.00n l=130.00n ng=1
MX19 VSS A Y VSS sg13_lv_nmos m=1 w=740.00n l=130.00n ng=1
MX18 Y A VSS VSS sg13_lv_nmos m=1 w=740.00n l=130.00n ng=1
MX17 VSS A Y VSS sg13_lv_nmos m=1 w=740.00n l=130.00n ng=1
MX16 VSS A Y VSS sg13_lv_nmos m=1 w=740.00n l=130.00n ng=1
MX12 Y A VSS VSS sg13_lv_nmos m=1 w=740.00n l=130.00n ng=1
MX10 VSS A Y VSS sg13_lv_nmos m=1 w=740.00n l=130.00n ng=1
MX9 Y A VSS VSS sg13_lv_nmos m=1 w=740.00n l=130.00n ng=1
MX8 VSS A Y VSS sg13_lv_nmos m=1 w=740.00n l=130.00n ng=1
MX7 Y A VSS VSS sg13_lv_nmos m=1 w=740.00n l=130.00n ng=1
MX6 VSS A Y VSS sg13_lv_nmos m=1 w=740.00n l=130.00n ng=1
MX2 VSS A Y VSS sg13_lv_nmos m=1 w=740.00n l=130.00n ng=1
MX31 Y A VDD VDD sg13_lv_pmos m=1 w=1.12e-06 l=130.00n ng=1
MX28 Y A VDD VDD sg13_lv_pmos m=1 w=1.12e-06 l=130.00n ng=1
MX26 Y A VDD VDD sg13_lv_pmos m=1 w=1.12e-06 l=130.00n ng=1
MX25 VDD A Y VDD sg13_lv_pmos m=1 w=1.12e-06 l=130.00n ng=1
MX24 VDD A Y VDD sg13_lv_pmos m=1 w=1.12e-06 l=130.00n ng=1
MX23 Y A VDD VDD sg13_lv_pmos m=1 w=1.12e-06 l=130.00n ng=1
MX20 Y A VDD VDD sg13_lv_pmos m=1 w=1.12e-06 l=130.00n ng=1
MX15 VDD A Y VDD sg13_lv_pmos m=1 w=1.12e-06 l=130.00n ng=1
MX14 VDD A Y VDD sg13_lv_pmos m=1 w=1.12e-06 l=130.00n ng=1
MX13 VDD A Y VDD sg13_lv_pmos m=1 w=1.12e-06 l=130.00n ng=1
MX11 VDD A Y VDD sg13_lv_pmos m=1 w=1.12e-06 l=130.00n ng=1
MX5 VDD A Y VDD sg13_lv_pmos m=1 w=1.12e-06 l=130.00n ng=1
MX4 Y A VDD VDD sg13_lv_pmos m=1 w=1.12e-06 l=130.00n ng=1
MX3 Y A VDD VDD sg13_lv_pmos m=1 w=1.12e-06 l=130.00n ng=1
MX1 Y A VDD VDD sg13_lv_pmos m=1 w=1.12e-06 l=130.00n ng=1
MX0 VDD A Y VDD sg13_lv_pmos m=1 w=1.12e-06 l=130.00n ng=1
.ENDS

************************************************************************
* Library Name: sg13g2_stdcell
* Cell Name:    sg13g2_inv_2
* View Name:    schematic
************************************************************************

.SUBCKT sg13g2_inv_2 A VDD VSS Y
*.PININFO A:B VDD:B VSS:B Y:B
MX0 Y A VSS VSS sg13_lv_nmos m=1 w=740.00n l=130.00n ng=1
MX3 VSS A Y VSS sg13_lv_nmos m=1 w=740.00n l=130.00n ng=1
MX1 VDD A Y VDD sg13_lv_pmos m=1 w=1.12e-06 l=130.00n ng=1
MX2 Y A VDD VDD sg13_lv_pmos m=1 w=1.12e-06 l=130.00n ng=1
.ENDS

************************************************************************
* Library Name: sg13g2_stdcell
* Cell Name:    sg13g2_inv_4
* View Name:    schematic
************************************************************************

.SUBCKT sg13g2_inv_4 A VSS VDD Y
*.PININFO A:B VDD:B VSS:B Y:B
MX0 VDD A Y VDD sg13_lv_pmos m=1 w=1.12e-06 l=130.00n ng=1
MX1 Y A VDD VDD sg13_lv_pmos m=1 w=1.12e-06 l=130.00n ng=1
MX2 Y A VDD VDD sg13_lv_pmos m=1 w=1.12e-06 l=130.00n ng=1
MX6 VDD A Y VDD sg13_lv_pmos m=1 w=1.12e-06 l=130.00n ng=1
MX3 VSS A Y VSS sg13_lv_nmos m=1 w=740.00n l=130.00n ng=1
MX4 VSS A Y VSS sg13_lv_nmos m=1 w=740.00n l=130.00n ng=1
MX5 Y A VSS VSS sg13_lv_nmos m=1 w=740.00n l=130.00n ng=1
MX7 Y A VSS VSS sg13_lv_nmos m=1 w=740.00n l=130.00n ng=1
.ENDS

************************************************************************
* Library Name: sg13g2_stdcell
* Cell Name:    sg13g2_inv_8
* View Name:    schematic
************************************************************************

.SUBCKT sg13g2_inv_8 A VSS VDD Y
*.PININFO A:B VDD:B VSS:B Y:B
MX0 VDD A Y VDD sg13_lv_pmos m=1 w=1.12e-06 l=130.00n ng=1
MX1 Y A VDD VDD sg13_lv_pmos m=1 w=1.12e-06 l=130.00n ng=1
MX5 Y A VDD VDD sg13_lv_pmos m=1 w=1.12e-06 l=130.00n ng=1
MX6 VDD A Y VDD sg13_lv_pmos m=1 w=1.12e-06 l=130.00n ng=1
MX7 Y A VDD VDD sg13_lv_pmos m=1 w=1.12e-06 l=130.00n ng=1
MX9 VDD A Y VDD sg13_lv_pmos m=1 w=1.12e-06 l=130.00n ng=1
MX13 Y A VDD VDD sg13_lv_pmos m=1 w=1.12e-06 l=130.00n ng=1
MX14 VDD A Y VDD sg13_lv_pmos m=1 w=1.12e-06 l=130.00n ng=1
MX2 Y A VSS VSS sg13_lv_nmos m=1 w=740.00n l=130.00n ng=1
MX3 VSS A Y VSS sg13_lv_nmos m=1 w=740.00n l=130.00n ng=1
MX4 Y A VSS VSS sg13_lv_nmos m=1 w=740.00n l=130.00n ng=1
MX8 VSS A Y VSS sg13_lv_nmos m=1 w=740.00n l=130.00n ng=1
MX10 Y A VSS VSS sg13_lv_nmos m=1 w=740.00n l=130.00n ng=1
MX11 VSS A Y VSS sg13_lv_nmos m=1 w=740.00n l=130.00n ng=1
MX12 Y A VSS VSS sg13_lv_nmos m=1 w=740.00n l=130.00n ng=1
MX15 VSS A Y VSS sg13_lv_nmos m=1 w=740.00n l=130.00n ng=1
.ENDS

************************************************************************
* Library Name: sg13g2_stdcell
* Cell Name:    sg13g2_mux2_1
* View Name:    schematic
************************************************************************

.SUBCKT sg13g2_mux2_1 A0 A1 S VSS VDD X
*.PININFO A0:B A1:B S:B VDD:B VSS:B X:B
MX0 a_223_368_ A0 a_304_74_ VDD sg13_lv_pmos m=1 w=1.000u l=130.00n ng=1
MX2 VDD S a_223_368_ VDD sg13_lv_pmos m=1 w=1.000u l=130.00n ng=1
MX6 a_27_112_ S VDD VDD sg13_lv_pmos m=1 w=840.00n l=130.00n ng=1
MX7 a_524_368_ a_27_112_ VDD VDD sg13_lv_pmos m=1 w=1.000u l=130.00n ng=1
MX9 VDD a_304_74_ X VDD sg13_lv_pmos m=1 w=1.12e-06 l=130.00n ng=1
MX11 a_304_74_ A1 a_524_368_ VDD sg13_lv_pmos m=1 w=1.000u l=130.00n ng=1
MX1 VSS S a_226_74_ VSS sg13_lv_nmos m=1 w=740.00n l=130.00n ng=1
MX3 a_443_74_ a_27_112_ VSS VSS sg13_lv_nmos m=1 w=740.00n l=130.00n ng=1
MX4 VSS a_304_74_ X VSS sg13_lv_nmos m=1 w=740.00n l=130.00n ng=1
MX5 a_304_74_ A0 a_443_74_ VSS sg13_lv_nmos m=1 w=740.00n l=130.00n ng=1
MX8 a_226_74_ A1 a_304_74_ VSS sg13_lv_nmos m=1 w=740.00n l=130.00n ng=1
MX10 a_27_112_ S VSS VSS sg13_lv_nmos m=1 w=550.00n l=130.00n ng=1
.ENDS

************************************************************************
* Library Name: sg13g2_stdcell
* Cell Name:    sg13g2_a21o_1
* View Name:    schematic
************************************************************************

.SUBCKT sg13g2_a21o_1 A1 A2 B1 VSS VDD X
*.PININFO A1:B A2:B B1:B VDD:B VSS:B X:B
MX0 a_452_136_ A2 VSS VSS sg13_lv_nmos m=1 w=640.00n l=130.00n ng=1
MX2 VSS B1 a_81_264_ VSS sg13_lv_nmos m=1 w=640.00n l=130.00n ng=1
MX4 a_81_264_ A1 a_452_136_ VSS sg13_lv_nmos m=1 w=640.00n l=130.00n ng=1
MX7 X a_81_264_ VSS VSS sg13_lv_nmos m=1 w=740.00n l=130.00n ng=1
MX1 a_81_264_ B1 a_364_392_ VDD sg13_lv_pmos m=1 w=1.000u l=130.00n ng=1
MX3 X a_81_264_ VDD VDD sg13_lv_pmos m=1 w=1.12e-06 l=130.00n ng=1
MX5 a_364_392_ A1 VDD VDD sg13_lv_pmos m=1 w=1.000u l=130.00n ng=1
MX6 VDD A2 a_364_392_ VDD sg13_lv_pmos m=1 w=1.000u l=130.00n ng=1
.ENDS

************************************************************************
* Library Name: sg13g2_stdcell
* Cell Name:    sg13g2_mux4_1
* View Name:    schematic
************************************************************************

.SUBCKT sg13g2_mux4_1 A0 A1 A2 A3 S0 S1 VSS VDD X
*.PININFO A0:B A1:B A2:B A3:B S0:B S1:B VDD:B VSS:B X:B
MX2 VDD A0 a_255_341_ VDD sg13_lv_pmos m=1 w=1.000u l=130.00n ng=1
MX21 a_255_341_ S0 a_342_74_ VDD sg13_lv_pmos m=1 w=1.000u l=130.00n ng=1
MX14 a_537_341_ A1 VDD VDD sg13_lv_pmos m=1 w=1.000u l=130.00n ng=1
MX6 a_342_74_ a_27_74_ a_537_341_ VDD sg13_lv_pmos m=1 w=1.000u l=130.00n ng=1
MX24 VDD A2 a_763_341_ VDD sg13_lv_pmos m=1 w=1.000u l=130.00n ng=1
MX17 a_763_341_ S0 a_846_74_ VDD sg13_lv_pmos m=1 w=1.000u l=130.00n ng=1
MX20 a_1065_387_ A3 VDD VDD sg13_lv_pmos m=1 w=1.000u l=130.00n ng=1
MX25 a_846_74_ a_27_74_ a_1065_387_ VDD sg13_lv_pmos m=1 w=1.000u l=130.00n 
+ ng=1
MX16 VDD a_1338_125_ X VDD sg13_lv_pmos m=1 w=1.12e-06 l=130.00n ng=1
MX10 a_27_74_ S0 VDD VDD sg13_lv_pmos m=1 w=1.000u l=130.00n ng=1
MX11 a_1338_125_ a_1396_99_ a_846_74_ VDD sg13_lv_pmos m=1 w=1.000u l=130.00n 
+ ng=1
MX5 a_342_74_ S1 a_1338_125_ VDD sg13_lv_pmos m=1 w=1.000u l=130.00n ng=1
MX0 a_1396_99_ S1 VDD VDD sg13_lv_pmos m=1 w=1.000u l=130.00n ng=1
MX1 a_264_74_ a_27_74_ a_342_74_ VSS sg13_lv_nmos m=1 w=640.00n l=130.00n ng=1
MX8 VSS A0 a_264_74_ VSS sg13_lv_nmos m=1 w=640.00n l=130.00n ng=1
MX3 a_342_74_ S0 a_450_74_ VSS sg13_lv_nmos m=1 w=640.00n l=130.00n ng=1
MX22 a_450_74_ A1 VSS VSS sg13_lv_nmos m=1 w=640.00n l=130.00n ng=1
MX4 a_768_74_ a_27_74_ a_846_74_ VSS sg13_lv_nmos m=1 w=640.00n l=130.00n ng=1
MX12 VSS A2 a_768_74_ VSS sg13_lv_nmos m=1 w=640.00n l=130.00n ng=1
MX9 a_846_74_ S0 a_979_74_ VSS sg13_lv_nmos m=1 w=640.00n l=130.00n ng=1
MX15 a_979_74_ A3 VSS VSS sg13_lv_nmos m=1 w=640.00n l=130.00n ng=1
MX13 VSS a_1338_125_ X VSS sg13_lv_nmos m=1 w=740.00n l=130.00n ng=1
MX19 a_27_74_ S0 VSS VSS sg13_lv_nmos m=1 w=640.00n l=130.00n ng=1
MX7 a_846_74_ S1 a_1338_125_ VSS sg13_lv_nmos m=1 w=640.00n l=130.00n ng=1
MX18 a_1338_125_ a_1396_99_ a_342_74_ VSS sg13_lv_nmos m=1 w=640.00n l=130.00n 
+ ng=1
MX23 a_1396_99_ S1 VSS VSS sg13_lv_nmos m=1 w=640.00n l=130.00n ng=1
.ENDS

************************************************************************
* Library Name: sg13g2_stdcell
* Cell Name:    sg13g2_nand2_1
* View Name:    schematic
************************************************************************

.SUBCKT sg13g2_nand2_1 A B VSS VDD Y
*.PININFO A:B B:B VDD:B VSS:B Y:B
MX0 VDD B Y VDD sg13_lv_pmos m=1 w=1.12e-06 l=130.00n ng=1
MX1 Y A VDD VDD sg13_lv_pmos m=1 w=1.12e-06 l=130.00n ng=1
MX2 a_117_74_ A Y VSS sg13_lv_nmos m=1 w=740.00n l=130.00n ng=1
MX3 VSS B a_117_74_ VSS sg13_lv_nmos m=1 w=740.00n l=130.00n ng=1
.ENDS

************************************************************************
* Library Name: sg13g2_stdcell
* Cell Name:    sg13g2_nand2b_1
* View Name:    schematic
************************************************************************

.SUBCKT sg13g2_nand2b_1 A_N B VSS VDD Y
*.PININFO A_N:B B:B VDD:B VSS:B Y:B
MX0 Y a_27_112_ VDD VDD sg13_lv_pmos m=1 w=1.12e-06 l=130.00n ng=1
MX1 a_27_112_ A_N VDD VDD sg13_lv_pmos m=1 w=840.00n l=130.00n ng=1
MX3 VDD B Y VDD sg13_lv_pmos m=1 w=1.12e-06 l=130.00n ng=1
MX2 a_269_74_ a_27_112_ Y VSS sg13_lv_nmos m=1 w=740.00n l=130.00n ng=1
MX4 a_27_112_ A_N VSS VSS sg13_lv_nmos m=1 w=550.00n l=130.00n ng=1
MX5 VSS B a_269_74_ VSS sg13_lv_nmos m=1 w=740.00n l=130.00n ng=1
.ENDS

************************************************************************
* Library Name: sg13g2_stdcell
* Cell Name:    sg13g2_nand3b_1
* View Name:    schematic
************************************************************************

.SUBCKT sg13g2_nand3b_1 A_N B C VSS VDD Y
*.PININFO A_N:B B:B C:B VDD:B VSS:B Y:B
MX0 a_27_116_ A_N VDD VDD sg13_lv_pmos m=1 w=840.00n l=130.00n ng=1
MX1 Y B VDD VDD sg13_lv_pmos m=1 w=1.12e-06 l=130.00n ng=1
MX2 VDD a_27_116_ Y VDD sg13_lv_pmos m=1 w=1.12e-06 l=130.00n ng=1
MX6 VDD C Y VDD sg13_lv_pmos m=1 w=1.12e-06 l=130.00n ng=1
MX3 a_269_78_ B a_347_78_ VSS sg13_lv_nmos m=1 w=740.00n l=130.00n ng=1
MX4 a_347_78_ a_27_116_ Y VSS sg13_lv_nmos m=1 w=740.00n l=130.00n ng=1
MX5 a_27_116_ A_N VSS VSS sg13_lv_nmos m=1 w=550.00n l=130.00n ng=1
MX7 VSS C a_269_78_ VSS sg13_lv_nmos m=1 w=740.00n l=130.00n ng=1
.ENDS

************************************************************************
* Library Name: sg13g2_stdcell
* Cell Name:    sg13g2_nor2_1
* View Name:    schematic
************************************************************************

.SUBCKT sg13g2_nor2_1 A B VSS VDD Y
*.PININFO A:B B:B VDD:B VSS:B Y:B
MX0 Y B VSS VSS sg13_lv_nmos m=1 w=740.00n l=130.00n ng=1
MX3 VSS A Y VSS sg13_lv_nmos m=1 w=740.00n l=130.00n ng=1
MX1 VDD A a_116_368_ VDD sg13_lv_pmos m=1 w=1.12e-06 l=130.00n ng=1
MX2 a_116_368_ B Y VDD sg13_lv_pmos m=1 w=1.12e-06 l=130.00n ng=1
.ENDS

************************************************************************
* Library Name: sg13g2_stdcell
* Cell Name:    sg13g2_nor3_1
* View Name:    schematic
************************************************************************

.SUBCKT sg13g2_nor3_1 A B C VSS VDD Y
*.PININFO A:B B:B C:B VDD:B VSS:B Y:B
MX0 a_114_368_ B a_198_368_ VDD sg13_lv_pmos m=1 w=1.12e-06 l=130.00n ng=1
MX2 VDD A a_114_368_ VDD sg13_lv_pmos m=1 w=1.12e-06 l=130.00n ng=1
MX3 a_198_368_ C Y VDD sg13_lv_pmos m=1 w=1.12e-06 l=130.00n ng=1
MX1 Y B VSS VSS sg13_lv_nmos m=1 w=740.00n l=130.00n ng=1
MX4 VSS A Y VSS sg13_lv_nmos m=1 w=740.00n l=130.00n ng=1
MX5 VSS C Y VSS sg13_lv_nmos m=1 w=740.00n l=130.00n ng=1
.ENDS

************************************************************************
* Library Name: sg13g2_stdcell
* Cell Name:    sg13g2_nor4_1
* View Name:    schematic
************************************************************************

.SUBCKT sg13g2_nor4_1 A B C D VSS VDD Y
*.PININFO A:B B:B C:B D:B VDD:B VSS:B Y:B
MX0 VDD A a_144_368_ VDD sg13_lv_pmos m=1 w=1.12e-06 l=130.00n ng=1
MX5 a_144_368_ B a_228_368_ VDD sg13_lv_pmos m=1 w=1.12e-06 l=130.00n ng=1
MX6 a_228_368_ C a_342_368_ VDD sg13_lv_pmos m=1 w=1.12e-06 l=130.00n ng=1
MX7 a_342_368_ D Y VDD sg13_lv_pmos m=1 w=1.12e-06 l=130.00n ng=1
MX1 VSS C Y VSS sg13_lv_nmos m=1 w=740.00n l=130.00n ng=1
MX2 VSS A Y VSS sg13_lv_nmos m=1 w=740.00n l=130.00n ng=1
MX3 Y D VSS VSS sg13_lv_nmos m=1 w=740.00n l=130.00n ng=1
MX4 Y B VSS VSS sg13_lv_nmos m=1 w=740.00n l=130.00n ng=1
.ENDS

************************************************************************
* Library Name: sg13g2_stdcell
* Cell Name:    sg13g2_or2_1
* View Name:    schematic
************************************************************************

.SUBCKT sg13g2_or2_1 A B VDD VSS X
*.PININFO A:B B:B VDD:B VSS:B X:B
MP0 net2 B net3 VDD sg13_lv_pmos m=1 w=840.00n l=130.00n ng=1
MP1 net3 A VDD VDD sg13_lv_pmos m=1 w=840.00n l=130.00n ng=1
MP2 X net2 VDD VDD sg13_lv_pmos m=1 w=1.12e-06 l=130.00n ng=1
MN0 net2 B VSS VSS sg13_lv_nmos m=1 w=550.00n l=130.00n ng=1
MN1 net2 A VSS VSS sg13_lv_nmos m=1 w=550.00n l=130.00n ng=1
MN2 X net2 VSS VSS sg13_lv_nmos m=1 w=740.00n l=130.00n ng=1
.ENDS

************************************************************************
* Library Name: sg13g2_stdcell
* Cell Name:    sg13g2_or3_1
* View Name:    schematic
************************************************************************

.SUBCKT sg13g2_or3_1 A B C VSS VDD X
*.PININFO A:B B:B C:B VDD:B VSS:B X:B
MX0 a_27_74_ A VSS VSS sg13_lv_nmos m=1 w=550.00n l=130.00n ng=1
MX1 VSS a_27_74_ X VSS sg13_lv_nmos m=1 w=740.00n l=130.00n ng=1
MX6 a_27_74_ C VSS VSS sg13_lv_nmos m=1 w=550.00n l=130.00n ng=1
MX7 VSS B a_27_74_ VSS sg13_lv_nmos m=1 w=550.00n l=130.00n ng=1
MX2 VDD a_27_74_ X VDD sg13_lv_pmos m=1 w=1.12e-06 l=130.00n ng=1
MX3 a_27_74_ C a_116_368_ VDD sg13_lv_pmos m=1 w=1.000u l=130.00n ng=1
MX4 a_116_368_ B a_200_368_ VDD sg13_lv_pmos m=1 w=1.000u l=130.00n ng=1
MX5 a_200_368_ A VDD VDD sg13_lv_pmos m=1 w=1.000u l=130.00n ng=1
.ENDS

************************************************************************
* Library Name: sg13g2_stdcell
* Cell Name:    sg13g2_or4_1
* View Name:    schematic
************************************************************************

.SUBCKT sg13g2_or4_1 A B C D VDD VSS X
*.PININFO A:I B:I C:I D:I X:O VDD:B VSS:B
MN4 X net1 VSS VSS sg13_lv_nmos m=1 w=740.00n l=130.00n ng=1
MN3 net1 A VSS VSS sg13_lv_nmos m=1 w=550.00n l=130.00n ng=1
MN2 net1 B VSS VSS sg13_lv_nmos m=1 w=550.00n l=130.00n ng=1
MN1 net1 C VSS VSS sg13_lv_nmos m=1 w=550.00n l=130.00n ng=1
MN0 net1 D VSS VSS sg13_lv_nmos m=1 w=550.00n l=130.00n ng=1
MP4 net4 D VDD VDD sg13_lv_pmos m=1 w=1.000u l=130.00n ng=1
MP3 net3 C net4 VDD sg13_lv_pmos m=1 w=1.000u l=130.00n ng=1
MP2 net2 B net3 VDD sg13_lv_pmos m=1 w=1.000u l=130.00n ng=1
MP1 net1 A net2 VDD sg13_lv_pmos m=1 w=1.000u l=130.00n ng=1
MP0 X net1 VDD VDD sg13_lv_pmos m=1 w=1.12u l=130.00n ng=1
.ENDS

************************************************************************
* Library Name: sg13g2_stdcell
* Cell Name:    sg13g2_xnor2_1
* View Name:    schematic
************************************************************************

.SUBCKT sg13g2_xnor2_1 A B VSS VDD Y
*.PININFO A:B B:B VDD:B VSS:B Y:B
MX0 a_376_368_ B Y VDD sg13_lv_pmos m=1 w=1.12e-06 l=130.00n ng=1
MX1 Y a_138_385_ VDD VDD sg13_lv_pmos m=1 w=1.12e-06 l=130.00n ng=1
MX2 a_138_385_ B VDD VDD sg13_lv_pmos m=1 w=840.00n l=130.00n ng=1
MX3 VDD A a_138_385_ VDD sg13_lv_pmos m=1 w=840.00n l=130.00n ng=1
MX9 VDD A a_376_368_ VDD sg13_lv_pmos m=1 w=1.12e-06 l=130.00n ng=1
MX4 VSS B a_293_74_ VSS sg13_lv_nmos m=1 w=740.00n l=130.00n ng=1
MX5 a_112_119_ B a_138_385_ VSS sg13_lv_nmos m=1 w=640.00n l=130.00n ng=1
MX6 VSS A a_112_119_ VSS sg13_lv_nmos m=1 w=640.00n l=130.00n ng=1
MX7 a_293_74_ A VSS VSS sg13_lv_nmos m=1 w=740.00n l=130.00n ng=1
MX8 a_293_74_ a_138_385_ Y VSS sg13_lv_nmos m=1 w=740.00n l=130.00n ng=1
.ENDS

************************************************************************
* Library Name: sg13g2_stdcell
* Cell Name:    sg13g2_xor2_1
* View Name:    schematic
************************************************************************

.SUBCKT sg13g2_xor2_1 A B VSS VDD X
*.PININFO A:B B:B VDD:B VSS:B X:B
MX0 VSS A a_194_125_ VSS sg13_lv_nmos m=1 w=550.00n l=130.00n ng=1
MX4 a_455_87_ B X VSS sg13_lv_nmos m=1 w=740.00n l=130.00n ng=1
MX6 X a_194_125_ VSS VSS sg13_lv_nmos m=1 w=740.00n l=130.00n ng=1
MX8 VSS A a_455_87_ VSS sg13_lv_nmos m=1 w=740.00n l=130.00n ng=1