************************************************************************
* 
* Copyright 2023 IHP PDK Authors
* 
* Licensed under the Apache License, Version 2.0 (the "License");
* you may not use this file except in compliance with the License.
* You may obtain a copy of the License at
* 
*    https://www.apache.org/licenses/LICENSE-2.0
* 
* Unless required by applicable law or agreed to in writing, software
* distributed under the License is distributed on an "AS IS" BASIS,
* WITHOUT WARRANTIES OR CONDITIONS OF ANY KIND, either express or implied.
* See the License for the specific language governing permissions and
* limitations under the License.
* 
************************************************************************

************************************************************************
* Library Name: sg13g2_stdcell
* Cell Name:    sg13g2_a21o_1
* View Name:    schematic
************************************************************************

.SUBCKT sg13g2_a21o_1 A1 A2 B1 VDD VSS X
*.PININFO A1:I A2:I B1:I X:O VDD:B VSS:B
MN0 net1 A1 net2 VSS sg13_lv_nmos m=1 w=640.00n l=130.00n ng=1
MN1 net2 A2 VSS VSS sg13_lv_nmos m=1 w=640.00n l=130.00n ng=1
MN2 net1 B1 VSS VSS sg13_lv_nmos m=1 w=640.00n l=130.00n ng=1
MN3 X net1 VSS VSS sg13_lv_nmos m=1 w=740.00n l=130.00n ng=1
MP0 net1 B1 net3 VDD sg13_lv_pmos m=1 w=1.000u l=130.00n ng=1
MP1 net3 A1 VDD VDD sg13_lv_pmos m=1 w=1.000u l=130.00n ng=1
MP2 net3 A2 VDD VDD sg13_lv_pmos m=1 w=1.000u l=130.00n ng=1
MP3 X net1 VDD VDD sg13_lv_pmos m=1 w=1.12u l=130.00n ng=1
.ENDS

************************************************************************
* Library Name: sg13g2_stdcell
* Cell Name:    sg13g2_a21o_2
* View Name:    schematic
************************************************************************

.SUBCKT sg13g2_a21o_2 A1 A2 B1 VDD VSS X
*.PININFO A1:I A2:I B1:I X:O VDD:B VSS:B
MN0 net1 A1 net2 VSS sg13_lv_nmos m=1 w=740.00n l=130.00n ng=1
MN1 net2 A2 VSS VSS sg13_lv_nmos m=1 w=740.00n l=130.00n ng=1
MN2 net1 B1 VSS VSS sg13_lv_nmos m=1 w=740.00n l=130.00n ng=1
MN3 X net1 VSS VSS sg13_lv_nmos m=2 w=740.00n l=130.00n ng=1
MP0 net1 B1 net3 VDD sg13_lv_pmos m=1 w=1.000u l=130.00n ng=1
MP1 net3 A1 VDD VDD sg13_lv_pmos m=1 w=1.000u l=130.00n ng=1
MP2 net3 A2 VDD VDD sg13_lv_pmos m=1 w=1.000u l=130.00n ng=1
MP3 X net1 VDD VDD sg13_lv_pmos m=2 w=1.12u l=130.00n ng=1
.ENDS

************************************************************************
* Library Name: sg13g2_stdcell
* Cell Name:    sg13g2_a21oi_1
* View Name:    schematic
************************************************************************

.SUBCKT sg13g2_a21oi_1 A1 A2 B1 VDD VSS Y
*.PININFO A1:I A2:I B1:I Y:O VDD:B VSS:B
MMNB0 Y B1 VSS VSS sg13_lv_nmos m=1 w=740.00n l=130.00n ng=1
MMNA1 sndA1 A2 VSS VSS sg13_lv_nmos m=1 w=740.00n l=130.00n ng=1
MMNA0 Y A1 sndA1 VSS sg13_lv_nmos m=1 w=740.00n l=130.00n ng=1
MMPB0 Y B1 pndA VDD sg13_lv_pmos m=1 w=1.12u l=130.00n ng=1
MMPA1 pndA A2 VDD VDD sg13_lv_pmos m=1 w=1.12u l=130.00n ng=1
MMPA0 pndA A1 VDD VDD sg13_lv_pmos m=1 w=1.12u l=130.00n ng=1
.ENDS

************************************************************************
* Library Name: sg13g2_stdcell
* Cell Name:    sg13g2_a21oi_2
* View Name:    schematic
************************************************************************

.SUBCKT sg13g2_a21oi_2 A1 A2 B1 VDD VSS Y
*.PININFO A1:I A2:I B1:I Y:O VDD:B VSS:B
MMNB0 Y B1 VSS VSS sg13_lv_nmos m=2 w=740.00n l=130.00n ng=1
MMNA1 sndA1 A2 VSS VSS sg13_lv_nmos m=2 w=740.00n l=130.00n ng=1
MMNA0 Y A1 sndA1 VSS sg13_lv_nmos m=2 w=740.00n l=130.00n ng=1
MMPB0 Y B1 pndA VDD sg13_lv_pmos m=2 w=1.12u l=130.00n ng=1
MMPA1 pndA A2 VDD VDD sg13_lv_pmos m=2 w=1.12u l=130.00n ng=1
MMPA0 pndA A1 VDD VDD sg13_lv_pmos m=2 w=1.12u l=130.00n ng=1
.ENDS

************************************************************************
* Library Name: sg13g2_stdcell
* Cell Name:    sg13g2_a221oi_1
* View Name:    schematic
************************************************************************

.SUBCKT sg13g2_a221oi_1 A1 A2 B1 B2 C1 VDD VSS Y
*.PININFO A1:I A2:I B1:I B2:I C1:I Y:O VDD:B VSS:B
MMPC0 Y C1 pndB VDD sg13_lv_pmos m=1 w=1.12u l=130.00n ng=1
MMPB1 pndB B2 pndA VDD sg13_lv_pmos m=1 w=1.12u l=130.00n ng=1
MMPB0 pndB B1 pndA VDD sg13_lv_pmos m=1 w=1.12u l=130.00n ng=1
MMPA1 pndA A2 VDD VDD sg13_lv_pmos m=1 w=1.12u l=130.00n ng=1
MMPA0 pndA A1 VDD VDD sg13_lv_pmos m=1 w=1.12u l=130.00n ng=1
MMNC0 Y C1 VSS VSS sg13_lv_nmos m=1 w=740.00n l=130.00n ng=1
MMNB1 sndB1 B2 VSS VSS sg13_lv_nmos m=1 w=740.00n l=130.00n ng=1
MMNB0 Y B1 sndB1 VSS sg13_lv_nmos m=1 w=740.00n l=130.00n ng=1
MMNA1 sndA1 A2 VSS VSS sg13_lv_nmos m=1 w=740.00n l=130.00n ng=1
MMNA0 Y A1 sndA1 VSS sg13_lv_nmos m=1 w=740.00n l=130.00n ng=1
.ENDS

************************************************************************
* Library Name: sg13g2_stdcell
* Cell Name:    sg13g2_and2_1
* View Name:    schematic
************************************************************************

.SUBCKT sg13g2_and2_1 A B VDD VSS X
*.PININFO A:I B:I X:O VDD:B VSS:B
MX0 net4 A net2 VSS sg13_lv_nmos m=1 w=640.00n l=130.00n ng=1
MX2 X net4 VSS VSS sg13_lv_nmos m=1 w=740.00n l=130.00n ng=1
MX3 net2 B VSS VSS sg13_lv_nmos m=1 w=640.00n l=130.00n ng=1
MX1 net4 B VDD VDD sg13_lv_pmos m=1 w=840.00n l=130.00n ng=1
MX4 VDD net4 X VDD sg13_lv_pmos m=1 w=1.12e-06 l=130.00n ng=1
MX5 net4 A VDD VDD sg13_lv_pmos m=1 w=840.00n l=130.00n ng=1
.ENDS

************************************************************************
* Library Name: sg13g2_stdcell
* Cell Name:    sg13g2_and2_2
* View Name:    schematic
************************************************************************

.SUBCKT sg13g2_and2_2 A B VDD VSS X
*.PININFO A:I B:I X:O VDD:B VSS:B
MX0 net4 A net2 VSS sg13_lv_nmos m=1 w=640.00n l=130.00n ng=1
MX2 X net4 VSS VSS sg13_lv_nmos m=2 w=740.00n l=130.00n ng=1
MX3 net2 B VSS VSS sg13_lv_nmos m=1 w=640.00n l=130.00n ng=1
MX1 net4 B VDD VDD sg13_lv_pmos m=1 w=840.00n l=130.00n ng=1
MX4 VDD net4 X VDD sg13_lv_pmos m=2 w=1.12u l=130.00n ng=1
MX5 net4 A VDD VDD sg13_lv_pmos m=1 w=840.00n l=130.00n ng=1
.ENDS

************************************************************************
* Library Name: sg13g2_stdcell
* Cell Name:    sg13g2_and3_1
* View Name:    schematic
************************************************************************

.SUBCKT sg13g2_and3_1 A B C VDD VSS X
*.PININFO A:I B:I C:I X:O VDD:B VSS:B
MX0 net3 C VSS VSS sg13_lv_nmos m=1 w=640.00n l=130.00n ng=1
MX2 X net2 VSS VSS sg13_lv_nmos m=1 w=740.00n l=130.00n ng=1
MX5 net2 A net1 VSS sg13_lv_nmos m=1 w=640.00n l=130.00n ng=1
MX6 net1 B net3 VSS sg13_lv_nmos m=1 w=640.00n l=130.00n ng=1
MX3 X net2 VDD VDD sg13_lv_pmos m=1 w=1.12e-06 l=130.00n ng=1
MX1 net2 B VDD VDD sg13_lv_pmos m=1 w=840.00n l=130.00n ng=1
MX4 net2 A VDD VDD sg13_lv_pmos m=1 w=840.00n l=130.00n ng=1
MX7 net2 C VDD VDD sg13_lv_pmos m=1 w=840.00n l=130.00n ng=1
.ENDS

************************************************************************
* Library Name: sg13g2_stdcell
* Cell Name:    sg13g2_and3_2
* View Name:    schematic
************************************************************************

.SUBCKT sg13g2_and3_2 A B C VDD VSS X
*.PININFO A:I B:I C:I X:O VDD:B VSS:B
MX0 net3 C VSS VSS sg13_lv_nmos m=1 w=640.00n l=130.00n ng=1
MX2 X net2 VSS VSS sg13_lv_nmos m=2 w=740.00n l=130.00n ng=1
MX5 net2 A net1 VSS sg13_lv_nmos m=1 w=640.00n l=130.00n ng=1
MX6 net1 B net3 VSS sg13_lv_nmos m=1 w=640.00n l=130.00n ng=1
MX3 X net2 VDD VDD sg13_lv_pmos m=2 w=1.12u l=130.00n ng=1
MX1 net2 B VDD VDD sg13_lv_pmos m=1 w=840.00n l=130.00n ng=1
MX4 net2 A VDD VDD sg13_lv_pmos m=1 w=840.00n l=130.00n ng=1
MX7 net2 C VDD VDD sg13_lv_pmos m=1 w=840.00n l=130.00n ng=1
.ENDS

************************************************************************
* Library Name: sg13g2_stdcell
* Cell Name:    sg13g2_and4_1
* View Name:    schematic
************************************************************************

.SUBCKT sg13g2_and4_1 A B C D VDD VSS X
*.PININFO A:I B:I C:I D:I X:O VDD:B VSS:B
MN4 net17 D VSS VSS sg13_lv_nmos m=1 w=640.00n l=130.00n ng=1
MN3 net16 C net17 VSS sg13_lv_nmos m=1 w=640.00n l=130.00n ng=1
MN2 net15 B net16 VSS sg13_lv_nmos m=1 w=640.00n l=130.00n ng=1
MN1 net1 A net15 VSS sg13_lv_nmos m=1 w=640.00n l=130.00n ng=1
MN0 X net1 VSS VSS sg13_lv_nmos m=1 w=740.00n l=130.00n ng=1
MP0 net1 A VDD VDD sg13_lv_pmos m=1 w=840.00n l=130.00n ng=1
MP4 X net1 VDD VDD sg13_lv_pmos m=1 w=1.12u l=130.00n ng=1
MP3 net1 D VDD VDD sg13_lv_pmos m=1 w=840.00n l=130.00n ng=1
MP2 net1 C VDD VDD sg13_lv_pmos m=1 w=840.00n l=130.00n ng=1
MP1 net1 B VDD VDD sg13_lv_pmos m=1 w=840.00n l=130.00n ng=1
.ENDS

************************************************************************
* Library Name: sg13g2_stdcell
* Cell Name:    sg13g2_and4_2
* View Name:    schematic
************************************************************************

.SUBCKT sg13g2_and4_2 A B C D VDD VSS X
*.PININFO A:I B:I C:I D:I X:O VDD:B VSS:B
MN4 net17 D VSS VSS sg13_lv_nmos m=1 w=640.00n l=130.00n ng=1
MN3 net16 C net17 VSS sg13_lv_nmos m=1 w=640.00n l=130.00n ng=1
MN2 net15 B net16 VSS sg13_lv_nmos m=1 w=640.00n l=130.00n ng=1
MN1 net1 A net15 VSS sg13_lv_nmos m=1 w=640.00n l=130.00n ng=1
MN0 X net1 VSS VSS sg13_lv_nmos m=2 w=740.00n l=130.00n ng=1
MP0 net1 A VDD VDD sg13_lv_pmos m=1 w=840.00n l=130.00n ng=1
MP4 X net1 VDD VDD sg13_lv_pmos m=2 w=1.12u l=130.00n ng=1
MP3 net1 D VDD VDD sg13_lv_pmos m=1 w=840.00n l=130.00n ng=1
MP2 net1 C VDD VDD sg13_lv_pmos m=1 w=840.00n l=130.00n ng=1
MP1 net1 B VDD VDD sg13_lv_pmos m=1 w=840.00n l=130.00n ng=1
.ENDS

************************************************************************
* Library Name: sg13g2_stdcell
* Cell Name:    sg13g2_antennanp
* View Name:    schematic
************************************************************************

.SUBCKT sg13g2_antennanp A VDD VSS
*.PININFO A:I VDD:B VSS:B
Ddn_1 VSS A dantenna m=1 w=780n l=780n a=608.4f p=3.12u
DD0 A VDD dpantenna m=1 w=1.05u l=1.34u a=1.407p p=4.78u
.ENDS

************************************************************************
* Library Name: sg13g2_stdcell
* Cell Name:    sg13g2_buf_1
* View Name:    schematic
************************************************************************

.SUBCKT sg13g2_buf_1 A VDD VSS X
*.PININFO A:I X:O VDD:B VSS:B
MN1 net1 A VSS VSS sg13_lv_nmos m=1 w=550.00n l=130.00n ng=1
MN0 X net1 VSS VSS sg13_lv_nmos m=1 w=740.00n l=130.00n ng=1
MP1 X net1 VDD VDD sg13_lv_pmos m=1 w=1.12u l=130.00n ng=1
MP0 net1 A VDD VDD sg13_lv_pmos m=1 w=840.00n l=130.00n ng=1
.ENDS

************************************************************************
* Library Name: sg13g2_stdcell
* Cell Name:    sg13g2_buf_16
* View Name:    schematic
************************************************************************

.SUBCKT sg13g2_buf_16 A VDD VSS X
*.PININFO A:I X:O VDD:B VSS:B
MN1 net1 A VSS VSS sg13_lv_nmos m=1 w=4.44u l=130.00n ng=6
MN0 X net1 VSS VSS sg13_lv_nmos m=1 w=11.84u l=130.00n ng=16
MP1 X net1 VDD VDD sg13_lv_pmos m=1 w=17.92u l=130.00n ng=16
MP0 net1 A VDD VDD sg13_lv_pmos m=1 w=6.72u l=130.00n ng=6
.ENDS

************************************************************************
* Library Name: sg13g2_stdcell
* Cell Name:    sg13g2_buf_2
* View Name:    schematic
************************************************************************

.SUBCKT sg13g2_buf_2 A VDD VSS X
*.PININFO A:I X:O VDD:B VSS:B
MN1 net1 A VSS VSS sg13_lv_nmos m=1 w=640.00n l=130.00n ng=1
MN0 X net1 VSS VSS sg13_lv_nmos m=1 w=1.48u l=130.00n ng=2
MP1 X net1 VDD VDD sg13_lv_pmos m=1 w=2.24u l=130.00n ng=2
MP0 net1 A VDD VDD sg13_lv_pmos m=1 w=1.000u l=130.00n ng=1
.ENDS

************************************************************************
* Library Name: sg13g2_stdcell
* Cell Name:    sg13g2_buf_4
* View Name:    schematic
************************************************************************

.SUBCKT sg13g2_buf_4 A VDD VSS X
*.PININFO A:I X:O VDD:B VSS:B
MN1 net1 A VSS VSS sg13_lv_nmos m=1 w=740.00n l=130.00n ng=1
MN0 X net1 VSS VSS sg13_lv_nmos m=1 w=2.96u l=130.00n ng=4
MP1 X net1 VDD VDD sg13_lv_pmos m=1 w=4.48u l=130.00n ng=4
MP0 net1 A VDD VDD sg13_lv_pmos m=1 w=1.68u l=130.00n ng=2
.ENDS

************************************************************************
* Library Name: sg13g2_stdcell
* Cell Name:    sg13g2_buf_8
* View Name:    schematic
************************************************************************

.SUBCKT sg13g2_buf_8 A VDD VSS X
*.PININFO A:I X:O VDD:B VSS:B
MN1 net1 A VSS VSS sg13_lv_nmos m=1 w=2.22u l=130.00n ng=3
MN0 X net1 VSS VSS sg13_lv_nmos m=1 w=5.92u l=130.00n ng=8
MP1 X net1 VDD VDD sg13_lv_pmos m=1 w=8.96u l=130.00n ng=8
MP0 net1 A VDD VDD sg13_lv_pmos m=1 w=3.36u l=130.00n ng=3
.ENDS

************************************************************************
* Library Name: sg13g2_stdcell
* Cell Name:    sg13g2_decap_4
* View Name:    schematic
************************************************************************

.SUBCKT sg13g2_decap_4 VDD VSS
*.PININFO VDD:B VSS:B
MX1 VSS VDD VSS VSS sg13_lv_nmos m=1 w=420.00n l=1.000u ng=1
MX0 VDD VSS VDD VDD sg13_lv_pmos m=1 w=1.000u l=1.000u ng=1
.ENDS

************************************************************************
* Library Name: sg13g2_stdcell
* Cell Name:    sg13g2_decap_8
* View Name:    schematic
************************************************************************

.SUBCKT sg13g2_decap_8 VDD VSS
*.PININFO VDD:B VSS:B
MX1 VSS VDD VSS VSS sg13_lv_nmos m=2 w=420.00n l=1.000u ng=1
MX0 VDD VSS VDD VDD sg13_lv_pmos m=2 w=1.000u l=1.000u ng=1
.ENDS

************************************************************************
* Library Name: sg13g2_stdcell
* Cell Name:    sg13g2_dfrbp_1
* View Name:    schematic
************************************************************************

.SUBCKT sg13g2_dfrbp_1 CLK D Q Q_N RESET_B VDD VSS
*.PININFO CLK:I D:I RESET_B:I Q:O Q_N:O VDD:B VSS:B
MN13 net12 net2 VSS VSS sg13_lv_nmos m=1 w=420.00n l=130.00n ng=1
MN14 net5 clkneg net12 VSS sg13_lv_nmos m=1 w=420.00n l=130.00n ng=1
MN15 net2 net5 net11 VSS sg13_lv_nmos m=1 w=420.00n l=130.00n ng=1
MN16 net11 RESET_B VSS VSS sg13_lv_nmos m=1 w=420.00n l=130.00n ng=1
MN6 Q_N net5 VSS VSS sg13_lv_nmos m=1 w=740.00n l=130.00n ng=1
MN0 Db D net10 VSS sg13_lv_nmos m=1 w=420.00n l=130.00n ng=1
MN1 net10 RESET_B VSS VSS sg13_lv_nmos m=1 w=420.00n l=130.00n ng=1
MN7 Db clkneg net6 VSS sg13_lv_nmos m=1 w=420.00n l=130.00n ng=1
MN8 net6 clkpos net9 VSS sg13_lv_nmos m=1 w=420.00n l=130.00n ng=1
MN9 net9 net4 net8 VSS sg13_lv_nmos m=1 w=420.00n l=130.00n ng=1
MN10 net8 RESET_B VSS VSS sg13_lv_nmos m=1 w=420.00n l=130.00n ng=1
MN11 net4 net6 VSS VSS sg13_lv_nmos m=1 w=640.00n l=130.00n ng=1
MN2 clkneg CLK VSS VSS sg13_lv_nmos m=1 w=740.00n l=130.00n ng=1
MN12 net4 clkpos net5 VSS sg13_lv_nmos m=1 w=640.00n l=130.00n ng=1
MN3 clkpos clkneg VSS VSS sg13_lv_nmos m=1 w=740.00n l=130.00n ng=1
MN4 Q net1 VSS VSS sg13_lv_nmos m=1 w=740.00n l=130.00n ng=1
MN5 net1 net5 VSS VSS sg13_lv_nmos m=1 w=550.00n l=130.00n ng=1
MP14 net5 clkpos net3 VDD sg13_lv_pmos m=1 w=420.00n l=130.00n ng=1
MP15 net2 net5 VDD VDD sg13_lv_pmos m=1 w=420.00n l=130.00n ng=1
MP16 net2 RESET_B VDD VDD sg13_lv_pmos m=1 w=420.00n l=130.00n ng=1
MP6 Q_N net5 VDD VDD sg13_lv_pmos m=1 w=1.12u l=130.00n ng=1
MP7 Db clkpos net6 VDD sg13_lv_pmos m=1 w=420.00n l=130.00n ng=1
MP0 Db RESET_B VDD VDD sg13_lv_pmos m=1 w=420.00n l=130.00n ng=1
MP1 Db D VDD VDD sg13_lv_pmos m=1 w=420.00n l=130.00n ng=1
MP8 net7 net4 VDD VDD sg13_lv_pmos m=1 w=420.00n l=130.00n ng=1
MP9 net6 clkneg net7 VDD sg13_lv_pmos m=1 w=420.00n l=130.00n ng=1
MP10 net6 RESET_B VDD VDD sg13_lv_pmos m=1 w=420.00n l=130.00n ng=1
MP2 clkneg CLK VDD VDD sg13_lv_pmos m=1 w=1.000u l=130.00n ng=1
MP3 clkpos clkneg VDD VDD sg13_lv_pmos m=1 w=1.000u l=130.00n ng=1
MP11 net4 net6 VDD VDD sg13_lv_pmos m=1 w=1.000u l=130.00n ng=1
MP12 net4 clkneg net5 VDD sg13_lv_pmos m=1 w=1.000u l=130.00n ng=1
MP4 Q net1 VDD VDD sg13_lv_pmos m=1 w=1.12u l=130.00n ng=1
MP13 net3 net2 VDD VDD sg13_lv_pmos m=1 w=420.00n l=130.00n ng=1
MP5 net1 net5 VDD VDD sg13_lv_pmos m=1 w=840.00n l=130.00n ng=1
.ENDS

************************************************************************
* Library Name: sg13g2_stdcell
* Cell Name:    sg13g2_dfrbp_2
* View Name:    schematic
************************************************************************

.SUBCKT sg13g2_dfrbp_2 CLK D Q Q_N RESET_B VDD VSS
*.PININFO CLK:I D:I RESET_B:I Q:O Q_N:O VDD:B VSS:B
MN13 net12 net2 VSS VSS sg13_lv_nmos m=1 w=420.00n l=130.00n ng=1
MN14 net5 clkneg net12 VSS sg13_lv_nmos m=1 w=420.00n l=130.00n ng=1
MN15 net2 net5 net11 VSS sg13_lv_nmos m=1 w=420.00n l=130.00n ng=1
MN16 net11 RESET_B VSS VSS sg13_lv_nmos m=1 w=420.00n l=130.00n ng=1
MN6 Q_N net5 VSS VSS sg13_lv_nmos m=2 w=740.00n l=130.00n ng=1
MN0 Db D net10 VSS sg13_lv_nmos m=1 w=420.00n l=130.00n ng=1
MN1 net10 RESET_B VSS VSS sg13_lv_nmos m=1 w=420.00n l=130.00n ng=1
MN7 Db clkneg net6 VSS sg13_lv_nmos m=1 w=420.00n l=130.00n ng=1
MN8 net6 clkpos net9 VSS sg13_lv_nmos m=1 w=420.00n l=130.00n ng=1
MN9 net9 net4 net8 VSS sg13_lv_nmos m=1 w=420.00n l=130.00n ng=1
MN10 net8 RESET_B VSS VSS sg13_lv_nmos m=1 w=420.00n l=130.00n ng=1
MN11 net4 net6 VSS VSS sg13_lv_nmos m=1 w=740.00n l=130.00n ng=1
MN2 clkneg CLK VSS VSS sg13_lv_nmos m=1 w=740.00n l=130.00n ng=1
MN12 net4 clkpos net5 VSS sg13_lv_nmos m=1 w=740.00n l=130.00n ng=1
MN3 clkpos clkneg VSS VSS sg13_lv_nmos m=1 w=740.00n l=130.00n ng=1
MN4 Q net1 VSS VSS sg13_lv_nmos m=2 w=740.00n l=130.00n ng=1
MN5 net1 net5 VSS VSS sg13_lv_nmos m=1 w=640.00n l=130.00n ng=1
MP14 net5 clkpos net3 VDD sg13_lv_pmos m=1 w=420.00n l=130.00n ng=1
MP15 net2 net5 VDD VDD sg13_lv_pmos m=1 w=420.00n l=130.00n ng=1
MP16 net2 RESET_B VDD VDD sg13_lv_pmos m=1 w=420.00n l=130.00n ng=1
MP6 Q_N net5 VDD VDD sg13_lv_pmos m=2 w=1.12u l=130.00n ng=1
MP7 Db clkpos net6 VDD sg13_lv_pmos m=1 w=420.00n l=130.00n ng=1
MP0 Db RESET_B VDD VDD sg13_lv_pmos m=1 w=420.00n l=130.00n ng=1
MP1 Db D VDD VDD sg13_lv_pmos m=1 w=420.00n l=130.00n ng=1
MP8 net7 net4 VDD VDD sg13_lv_pmos m=1 w=420.00n l=130.00n ng=1
MP9 net6 clkneg net7 VDD sg13_lv_pmos m=1 w=420.00n l=130.00n ng=1
MP10 net6 RESET_B VDD VDD sg13_lv_pmos m=1 w=420.00n l=130.00n ng=1
MP2 clkneg CLK VDD VDD sg13_lv_pmos m=1 w=1.12u l=130.00n ng=1
MP3 clkpos clkneg VDD VDD sg13_lv_pmos m=1 w=1.12u l=130.00n ng=1
MP11 net4 net6 VDD VDD sg13_lv_pmos m=1 w=1.000u l=130.00n ng=1
MP12 net4 clkneg net5 VDD sg13_lv_pmos m=1 w=1.000u l=130.00n ng=1
MP4 Q net1 VDD VDD sg13_lv_pmos m=2 w=1.12u l=130.00n ng=1
MP13 net3 net2 VDD VDD sg13_lv_pmos m=1 w=420.00n l=130.00n ng=1
MP5 net1 net5 VDD VDD sg13_lv_pmos m=1 w=1.000u l=130.00n ng=1
.ENDS

************************************************************************
* Library Name: sg13g2_stdcell
* Cell Name:    sg13g2_dlhq_1
* View Name:    schematic
************************************************************************

.SUBCKT sg13g2_dlhq_1 D GATE Q VDD VSS
*.PININFO D:I GATE:I Q:O VDD:B VSS:B
MX17 VDD a_386_326_ Q VDD sg13_lv_pmos m=1 w=1.12e-06 l=130.00n ng=1
MX16 a_592_149_ a_685_59_ a_419_392_ VDD sg13_lv_pmos m=1 w=420.00n l=130.00n 
+ ng=1
MX14 a_386_326_ a_592_149_ VDD VDD sg13_lv_pmos m=1 w=1.12e-06 l=130.00n ng=1
MX12 VDD D a_116_424_ VDD sg13_lv_pmos m=1 w=840.00n l=130.00n ng=1
MX9 a_562_123_ GATE VDD VDD sg13_lv_pmos m=1 w=840.00n l=130.00n ng=1
MX7 VDD a_562_123_ a_685_59_ VDD sg13_lv_pmos m=1 w=840.00n l=130.00n ng=1
MX4 VDD a_386_326_ a_419_392_ VDD sg13_lv_pmos m=1 w=420.00n l=130.00n ng=1
MX3 a_229_392_ a_562_123_ a_592_149_ VDD sg13_lv_pmos m=1 w=1.000u l=130.00n 
+ ng=1
MX1 a_229_392_ a_116_424_ VDD VDD sg13_lv_pmos m=1 w=1.000u l=130.00n ng=1
MX15 a_562_123_ GATE VSS VSS sg13_lv_nmos m=1 w=740.00n l=130.00n ng=1
MX13 VSS a_562_123_ a_685_59_ VSS sg13_lv_nmos m=1 w=740.00n l=130.00n ng=1
MX11 a_514_149_ a_562_123_ a_592_149_ VSS sg13_lv_nmos m=1 w=420.00n l=130.00n 
+ ng=1
MX10 VSS a_386_326_ Q VSS sg13_lv_nmos m=1 w=740.00n l=130.00n ng=1
MX8 a_239_85_ a_116_424_ VSS VSS sg13_lv_nmos m=1 w=740.00n l=130.00n ng=1
MX6 VSS a_386_326_ a_514_149_ VSS sg13_lv_nmos m=1 w=420.00n l=130.00n ng=1
MX5 a_386_326_ a_592_149_ VSS VSS sg13_lv_nmos m=1 w=740.00n l=130.00n ng=1
MX2 a_592_149_ a_685_59_ a_239_85_ VSS sg13_lv_nmos m=1 w=740.00n l=130.00n 
+ ng=1
MX0 VSS D a_116_424_ VSS sg13_lv_nmos m=1 w=550.00n l=130.00n ng=1
.ENDS

************************************************************************
* Library Name: sg13g2_stdcell
* Cell Name:    sg13g2_dlhr_1
* View Name:    schematic
************************************************************************

.SUBCKT sg13g2_dlhr_1 D GATE Q Q_N RESET_B VDD VSS
*.PININFO D:I GATE:I RESET_B:I Q:O Q_N:O VDD:B VSS:B
MX0 a_823_98_ RESET_B VDD VDD sg13_lv_pmos m=1 w=1.12e-06 l=130.00n ng=1
MX9 VDD a_823_98_ Q VDD sg13_lv_pmos m=1 w=1.12e-06 l=130.00n ng=1
MX15 a_642_392_ a_353_98_ a_753_508_ VDD sg13_lv_pmos m=1 w=420.00n l=130.00n 
+ ng=1
MX6 a_753_508_ a_823_98_ VDD VDD sg13_lv_pmos m=1 w=420.00n l=130.00n ng=1
MX10 a_564_392_ a_226_104_ a_642_392_ VDD sg13_lv_pmos m=1 w=1.000u l=130.00n 
+ ng=1
MX18 VDD a_27_142_ a_564_392_ VDD sg13_lv_pmos m=1 w=1.000u l=130.00n ng=1
MX13 a_27_142_ D VDD VDD sg13_lv_pmos m=1 w=840.00n l=130.00n ng=1
MX5 VDD GATE a_226_104_ VDD sg13_lv_pmos m=1 w=840.00n l=130.00n ng=1
MX3 VDD a_1342_74_ Q_N VDD sg13_lv_pmos m=1 w=1.12e-06 l=130.00n ng=1
MX1 VDD a_642_392_ a_823_98_ VDD sg13_lv_pmos m=1 w=1.12e-06 l=130.00n ng=1
MX20 a_353_98_ a_226_104_ VDD VDD sg13_lv_pmos m=1 w=840.00n l=130.00n ng=1
MX2 a_1342_74_ a_823_98_ VDD VDD sg13_lv_pmos m=1 w=840.00n l=130.00n ng=1
MX12 a_823_98_ a_642_392_ a_1051_74_ VSS sg13_lv_nmos m=1 w=740.00n l=130.00n 
+ ng=1
MX21 a_1051_74_ RESET_B VSS VSS sg13_lv_nmos m=1 w=740.00n l=130.00n ng=1
MX11 a_642_392_ a_226_104_ a_775_124_ VSS sg13_lv_nmos m=1 w=420.00n l=130.00n 
+ ng=1
MX14 a_775_124_ a_823_98_ VSS VSS sg13_lv_nmos m=1 w=420.00n l=130.00n ng=1
MX7 VSS a_823_98_ Q VSS sg13_lv_nmos m=1 w=740.00n l=130.00n ng=1
MX16 a_571_80_ a_353_98_ a_642_392_ VSS sg13_lv_nmos m=1 w=640.00n l=130.00n 
+ ng=1
MX23 VSS a_27_142_ a_571_80_ VSS sg13_lv_nmos m=1 w=640.00n l=130.00n ng=1
MX4 a_27_142_ D VSS VSS sg13_lv_nmos m=1 w=550.00n l=130.00n ng=1
MX19 VSS GATE a_226_104_ VSS sg13_lv_nmos m=1 w=740.00n l=130.00n ng=1
MX8 VSS a_1342_74_ Q_N VSS sg13_lv_nmos m=1 w=740.00n l=130.00n ng=1
MX17 a_353_98_ a_226_104_ VSS VSS sg13_lv_nmos m=1 w=740.00n l=130.00n ng=1
MX22 a_1342_74_ a_823_98_ VSS VSS sg13_lv_nmos m=1 w=550.00n l=130.00n ng=1
.ENDS

************************************************************************
* Library Name: sg13g2_stdcell
* Cell Name:    sg13g2_dlhrq_1
* View Name:    schematic
************************************************************************

.SUBCKT sg13g2_dlhrq_1 D GATE Q RESET_B VDD VSS
*.PININFO D:I GATE:I RESET_B:I Q:O VDD:B VSS:B
MX19 a_769_74_ a_817_48_ VSS VSS sg13_lv_nmos m=1 w=420.00n l=130.00n ng=1
MX14 a_565_74_ a_363_74_ a_643_74_ VSS sg13_lv_nmos m=1 w=640.00n l=130.00n 
+ ng=1
MX11 VSS a_817_48_ Q VSS sg13_lv_nmos m=1 w=740.00n l=130.00n ng=1
MX10 a_27_424_ D VSS VSS sg13_lv_nmos m=1 w=550.00n l=130.00n ng=1
MX8 a_1045_74_ RESET_B VSS VSS sg13_lv_nmos m=1 w=740.00n l=130.00n ng=1
MX7 a_817_48_ a_643_74_ a_1045_74_ VSS sg13_lv_nmos m=1 w=740.00n l=130.00n 
+ ng=1
MX6 a_643_74_ a_216_424_ a_769_74_ VSS sg13_lv_nmos m=1 w=420.00n l=130.00n 
+ ng=1
MX4 VSS GATE a_216_424_ VSS sg13_lv_nmos m=1 w=740.00n l=130.00n ng=1
MX3 VSS a_27_424_ a_565_74_ VSS sg13_lv_nmos m=1 w=640.00n l=130.00n ng=1
MX1 a_363_74_ a_216_424_ VSS VSS sg13_lv_nmos m=1 w=740.00n l=130.00n ng=1
MX18 VDD a_643_74_ a_817_48_ VDD sg13_lv_pmos m=1 w=1.000u l=130.00n ng=1
MX17 VDD a_27_424_ a_568_392_ VDD sg13_lv_pmos m=1 w=1.000u l=130.00n ng=1
MX16 a_643_74_ a_363_74_ a_759_508_ VDD sg13_lv_pmos m=1 w=420.00n l=130.00n 
+ ng=1
MX15 VDD GATE a_216_424_ VDD sg13_lv_pmos m=1 w=840.00n l=130.00n ng=1
MX13 a_27_424_ D VDD VDD sg13_lv_pmos m=1 w=840.00n l=130.00n ng=1
MX12 a_759_508_ a_817_48_ VDD VDD sg13_lv_pmos m=1 w=420.00n l=130.00n ng=1
MX9 a_363_74_ a_216_424_ VDD VDD sg13_lv_pmos m=1 w=840.00n l=130.00n ng=1
MX5 VDD a_817_48_ Q VDD sg13_lv_pmos m=1 w=1.12e-06 l=130.00n ng=1
MX2 a_817_48_ RESET_B VDD VDD sg13_lv_pmos m=1 w=1.000u l=130.00n ng=1
MX0 a_568_392_ a_216_424_ a_643_74_ VDD sg13_lv_pmos m=1 w=1.000u l=130.00n 
+ ng=1
.ENDS

************************************************************************
* Library Name: sg13g2_stdcell
* Cell Name:    sg13g2_dllr_1
* View Name:    schematic
************************************************************************

.SUBCKT sg13g2_dllr_1 D GATE_N Q Q_N RESET_B VDD VSS
*.PININFO D:I GATE_N:I Q:I RESET_B:I Q_N:O VDD:B VSS:B
MX19 VDD a_686_74_ a_889_92_ VDD sg13_lv_pmos m=1 w=1.12e-06 l=130.00n ng=1
MX17 a_802_508_ a_889_92_ VDD VDD sg13_lv_pmos m=1 w=420.00n l=130.00n ng=1
MX16 a_27_424_ D VDD VDD sg13_lv_pmos m=1 w=840.00n l=130.00n ng=1
MX11 VDD a_27_424_ a_611_392_ VDD sg13_lv_pmos m=1 w=1.000u l=130.00n ng=1
MX10 a_889_92_ RESET_B VDD VDD sg13_lv_pmos m=1 w=1.12e-06 l=130.00n ng=1
MX9 a_686_74_ a_231_74_ a_802_508_ VDD sg13_lv_pmos m=1 w=420.00n l=130.00n 
+ ng=1
MX7 VDD GATE_N a_231_74_ VDD sg13_lv_pmos m=1 w=840.00n l=130.00n ng=1
MX6 a_1437_112_ a_889_92_ VDD VDD sg13_lv_pmos m=1 w=840.00n l=130.00n ng=1
MX5 a_611_392_ a_373_74_ a_686_74_ VDD sg13_lv_pmos m=1 w=1.000u l=130.00n ng=1
MX3 VDD a_889_92_ Q VDD sg13_lv_pmos m=1 w=1.12e-06 l=130.00n ng=1
MX2 a_373_74_ a_231_74_ VDD VDD sg13_lv_pmos m=1 w=840.00n l=130.00n ng=1
MX1 VDD a_1437_112_ Q_N VDD sg13_lv_pmos m=1 w=1.12e-06 l=130.00n ng=1
MX23 VSS a_1437_112_ Q_N VSS sg13_lv_nmos m=1 w=740.00n l=130.00n ng=1
MX22 a_373_74_ a_231_74_ VSS VSS sg13_lv_nmos m=1 w=740.00n l=130.00n ng=1
MX21 a_889_92_ a_686_74_ a_1133_74_ VSS sg13_lv_nmos m=1 w=740.00n l=130.00n 
+ ng=1
MX20 VSS GATE_N a_231_74_ VSS sg13_lv_nmos m=1 w=740.00n l=130.00n ng=1
MX18 a_1437_112_ a_889_92_ VSS VSS sg13_lv_nmos m=1 w=550.00n l=130.00n ng=1
MX15 a_27_424_ D VSS VSS sg13_lv_nmos m=1 w=550.00n l=130.00n ng=1
MX14 a_841_118_ a_889_92_ VSS VSS sg13_lv_nmos m=1 w=420.00n l=130.00n ng=1
MX13 VSS a_27_424_ a_608_74_ VSS sg13_lv_nmos m=1 w=640.00n l=130.00n ng=1
MX12 a_686_74_ a_373_74_ a_841_118_ VSS sg13_lv_nmos m=1 w=420.00n l=130.00n 
+ ng=1
MX8 VSS a_889_92_ Q VSS sg13_lv_nmos m=1 w=740.00n l=130.00n ng=1
MX4 a_608_74_ a_231_74_ a_686_74_ VSS sg13_lv_nmos m=1 w=640.00n l=130.00n ng=1
MX0 a_1133_74_ RESET_B VSS VSS sg13_lv_nmos m=1 w=740.00n l=130.00n ng=1
.ENDS

************************************************************************
* Library Name: sg13g2_stdcell
* Cell Name:    sg13g2_dllrq_1
* View Name:    schematic
************************************************************************

.SUBCKT sg13g2_dllrq_1 D GATE_N Q RESET_B VDD VSS
*.PININFO D:I GATE_N:I RESET_B:I Q:O VDD:B VSS:B
MX18 a_357_392_ a_232_98_ VSS VSS sg13_lv_nmos m=1 w=740.00n l=130.00n ng=1
MX17 VSS a_897_406_ Q VSS sg13_lv_nmos m=1 w=740.00n l=130.00n ng=1
MX16 a_654_392_ a_357_392_ a_854_74_ VSS sg13_lv_nmos m=1 w=420.00n l=130.00n 
+ ng=1
MX14 VSS a_27_136_ a_681_74_ VSS sg13_lv_nmos m=1 w=640.00n l=130.00n ng=1
MX12 a_681_74_ a_232_98_ a_654_392_ VSS sg13_lv_nmos m=1 w=640.00n l=130.00n 
+ ng=1
MX9 a_27_136_ D VSS VSS sg13_lv_nmos m=1 w=550.00n l=130.00n ng=1
MX6 a_1139_74_ RESET_B VSS VSS sg13_lv_nmos m=1 w=740.00n l=130.00n ng=1
MX5 a_854_74_ a_897_406_ VSS VSS sg13_lv_nmos m=1 w=420.00n l=130.00n ng=1
MX3 a_897_406_ a_654_392_ a_1139_74_ VSS sg13_lv_nmos m=1 w=740.00n l=130.00n 
+ ng=1
MX1 VSS GATE_N a_232_98_ VSS sg13_lv_nmos m=1 w=740.00n l=130.00n ng=1
MX19 VDD GATE_N a_232_98_ VDD sg13_lv_pmos m=1 w=840.00n l=130.00n ng=1
MX15 a_897_406_ RESET_B VDD VDD sg13_lv_pmos m=1 w=1.000u l=130.00n ng=1
MX13 a_654_392_ a_232_98_ a_793_508_ VDD sg13_lv_pmos m=1 w=420.00n l=130.00n 
+ ng=1
MX11 a_793_508_ a_897_406_ VDD VDD sg13_lv_pmos m=1 w=420.00n l=130.00n ng=1
MX10 VDD a_897_406_ Q VDD sg13_lv_pmos m=1 w=1.12e-06 l=130.00n ng=1
MX8 a_27_136_ D VDD VDD sg13_lv_pmos m=1 w=840.00n l=130.00n ng=1
MX7 VDD a_27_136_ a_570_392_ VDD sg13_lv_pmos m=1 w=1.000u l=130.00n ng=1
MX4 VDD a_654_392_ a_897_406_ VDD sg13_lv_pmos m=1 w=1.000u l=130.00n ng=1
MX2 a_570_392_ a_357_392_ a_654_392_ VDD sg13_lv_pmos m=1 w=1.000u l=130.00n 
+ ng=1
MX0 a_357_392_ a_232_98_ VDD VDD sg13_lv_pmos m=1 w=840.00n l=130.00n ng=1
.ENDS

************************************************************************
* Library Name: sg13g2_stdcell
* Cell Name:    sg13g2_dlygate4sd1_1
* View Name:    schematic
************************************************************************

.SUBCKT sg13g2_dlygate4sd1_1 A VDD VSS X
*.PININFO A:I X:O VDD:B VSS:B
MP3 X net3 VDD VDD sg13_lv_pmos m=1 w=1.12u l=130.00n ng=1
MP2 net3 net2 VDD VDD sg13_lv_pmos m=1 w=1.000u l=130.00n ng=1
MP1 net2 net1 VDD VDD sg13_lv_pmos m=1 w=1.000u l=130.00n ng=1
MP0 net1 A VDD VDD sg13_lv_pmos m=1 w=420.00n l=130.00n ng=1
MN3 X net3 VSS VSS sg13_lv_nmos m=1 w=740.00n l=130.00n ng=1
MN2 net3 net2 VSS VSS sg13_lv_nmos m=1 w=420.00n l=130.00n ng=1
MN1 net2 net1 VSS VSS sg13_lv_nmos m=1 w=420.00n l=130.00n ng=1
MN0 net1 A VSS VSS sg13_lv_nmos m=1 w=420.00n l=130.00n ng=1
.ENDS

************************************************************************
* Library Name: sg13g2_stdcell
* Cell Name:    sg13g2_dlygate4sd2_1
* View Name:    schematic
************************************************************************

.SUBCKT sg13g2_dlygate4sd2_1 A VDD VSS X
*.PININFO A:I X:O VDD:B VSS:B
MP3 X net3 VDD VDD sg13_lv_pmos m=1 w=1.12u l=130.00n ng=1
MP2 net3 net2 VDD VDD sg13_lv_pmos m=1 w=1.000u l=250.00n ng=1
MP1 net2 net1 VDD VDD sg13_lv_pmos m=1 w=1.000u l=250.00n ng=1
MP0 net1 A VDD VDD sg13_lv_pmos m=1 w=420.00n l=130.00n ng=1
MN3 X net3 VSS VSS sg13_lv_nmos m=1 w=740.00n l=130.00n ng=1
MN2 net3 net2 VSS VSS sg13_lv_nmos m=1 w=420.00n l=180.00n ng=1
MN1 net2 net1 VSS VSS sg13_lv_nmos m=1 w=420.00n l=180.00n ng=1
MN0 net1 A VSS VSS sg13_lv_nmos m=1 w=420.00n l=130.00n ng=1
.ENDS
