************************************************************************
*
* Copyright 2024 IHP PDK Authors
* 
* Licensed under the Apache License, Version 2.0 (the "License");
* you may not use this file except in compliance with the License.
* You may obtain a copy of the License at
* 
*    https://www.apache.org/licenses/LICENSE-2.0
* 
* Unless required by applicable law or agreed to in writing, software
* distributed under the License is distributed on an "AS IS" BASIS,
* WITHOUT WARRANTIES OR CONDITIONS OF ANY KIND, either express or implied.
* See the License for the specific language governing permissions and
* limitations under the License.
*
************************************************************************

*.BIPOLAR
*.RESI = 2000 
*.RESVAL
*.CAPVAL
*.DIOPERI
*.DIOAREA
*.EQUATION
*.SCALE METER
*.MEGA
.PARAM

*.GLOBAL sub!
*.PIN sub!

************************************************************************
* Library Name: sg13g2_io
* Cell Name:    sg13g2_IOPadIOVss
* View Name:    schematic
************************************************************************

.SUBCKT sg13g2_IOPadIOVss iovdd iovss vdd vss
*.PININFO iovdd:B iovss:B vdd:B vss:B
DD4 sub! iovss dantenna m=1 w=1.26u l=27.78u a=35.003p p=58.08u
DD2 sub! iovss dantenna m=1 w=1.26u l=27.78u a=35.003p p=58.08u
DD3 iovss iovdd dpantenna m=1 w=1.26u l=27.78u a=35.003p p=58.08u
DD1 iovss iovdd dpantenna m=1 w=1.26u l=27.78u a=35.003p p=58.08u
XR2 vss sub! / ptap1 r=22.472 A=24.01p Perim=19.6u w=4.9u l=4.9u
XR0 iovss sub! / ptap1 r=169.45m A=5.487n Perim=296.3u w=74.075u l=74.075u
.ENDS

************************************************************************
* Library Name: sg13g2_io
* Cell Name:    sg13g2_Clamp_N43N43D4R
* View Name:    schematic
************************************************************************

.SUBCKT sg13g2_Clamp_N43N43D4R gate pad tie
*.PININFO gate:I pad:B tie:B
MN0<1> pad gate tie sub! sg13_hv_nmos m=1 w=4.4u l=600.0n ng=1
MN0<2> pad gate tie sub! sg13_hv_nmos m=1 w=4.4u l=600.0n ng=1
MN0<3> pad gate tie sub! sg13_hv_nmos m=1 w=4.4u l=600.0n ng=1
MN0<4> pad gate tie sub! sg13_hv_nmos m=1 w=4.4u l=600.0n ng=1
MN0<5> pad gate tie sub! sg13_hv_nmos m=1 w=4.4u l=600.0n ng=1
MN0<6> pad gate tie sub! sg13_hv_nmos m=1 w=4.4u l=600.0n ng=1
MN0<7> pad gate tie sub! sg13_hv_nmos m=1 w=4.4u l=600.0n ng=1
MN0<8> pad gate tie sub! sg13_hv_nmos m=1 w=4.4u l=600.0n ng=1
MN0<9> pad gate tie sub! sg13_hv_nmos m=1 w=4.4u l=600.0n ng=1
MN0<10> pad gate tie sub! sg13_hv_nmos m=1 w=4.4u l=600.0n ng=1
MN0<11> pad gate tie sub! sg13_hv_nmos m=1 w=4.4u l=600.0n ng=1
MN0<12> pad gate tie sub! sg13_hv_nmos m=1 w=4.4u l=600.0n ng=1
MN0<13> pad gate tie sub! sg13_hv_nmos m=1 w=4.4u l=600.0n ng=1
MN0<14> pad gate tie sub! sg13_hv_nmos m=1 w=4.4u l=600.0n ng=1
MN0<15> pad gate tie sub! sg13_hv_nmos m=1 w=4.4u l=600.0n ng=1
MN0<16> pad gate tie sub! sg13_hv_nmos m=1 w=4.4u l=600.0n ng=1
MN0<17> pad gate tie sub! sg13_hv_nmos m=1 w=4.4u l=600.0n ng=1
MN0<18> pad gate tie sub! sg13_hv_nmos m=1 w=4.4u l=600.0n ng=1
MN0<19> pad gate tie sub! sg13_hv_nmos m=1 w=4.4u l=600.0n ng=1
MN0<20> pad gate tie sub! sg13_hv_nmos m=1 w=4.4u l=600.0n ng=1
MN0<21> pad gate tie sub! sg13_hv_nmos m=1 w=4.4u l=600.0n ng=1
MN0<22> pad gate tie sub! sg13_hv_nmos m=1 w=4.4u l=600.0n ng=1
MN0<23> pad gate tie sub! sg13_hv_nmos m=1 w=4.4u l=600.0n ng=1
MN0<24> pad gate tie sub! sg13_hv_nmos m=1 w=4.4u l=600.0n ng=1
MN0<25> pad gate tie sub! sg13_hv_nmos m=1 w=4.4u l=600.0n ng=1
MN0<26> pad gate tie sub! sg13_hv_nmos m=1 w=4.4u l=600.0n ng=1
MN0<27> pad gate tie sub! sg13_hv_nmos m=1 w=4.4u l=600.0n ng=1
MN0<28> pad gate tie sub! sg13_hv_nmos m=1 w=4.4u l=600.0n ng=1
MN0<29> pad gate tie sub! sg13_hv_nmos m=1 w=4.4u l=600.0n ng=1
MN0<30> pad gate tie sub! sg13_hv_nmos m=1 w=4.4u l=600.0n ng=1
MN0<31> pad gate tie sub! sg13_hv_nmos m=1 w=4.4u l=600.0n ng=1
MN0<32> pad gate tie sub! sg13_hv_nmos m=1 w=4.4u l=600.0n ng=1
MN0<33> pad gate tie sub! sg13_hv_nmos m=1 w=4.4u l=600.0n ng=1
MN0<34> pad gate tie sub! sg13_hv_nmos m=1 w=4.4u l=600.0n ng=1
MN0<35> pad gate tie sub! sg13_hv_nmos m=1 w=4.4u l=600.0n ng=1
MN0<36> pad gate tie sub! sg13_hv_nmos m=1 w=4.4u l=600.0n ng=1
MN0<37> pad gate tie sub! sg13_hv_nmos m=1 w=4.4u l=600.0n ng=1
MN0<38> pad gate tie sub! sg13_hv_nmos m=1 w=4.4u l=600.0n ng=1
MN0<39> pad gate tie sub! sg13_hv_nmos m=1 w=4.4u l=600.0n ng=1
MN0<40> pad gate tie sub! sg13_hv_nmos m=1 w=4.4u l=600.0n ng=1
MN0<41> pad gate tie sub! sg13_hv_nmos m=1 w=4.4u l=600.0n ng=1
MN0<42> pad gate tie sub! sg13_hv_nmos m=1 w=4.4u l=600.0n ng=1
MN0<43> pad gate tie sub! sg13_hv_nmos m=1 w=4.4u l=600.0n ng=1
MN0<44> pad gate tie sub! sg13_hv_nmos m=1 w=4.4u l=600.0n ng=1
MN0<45> pad gate tie sub! sg13_hv_nmos m=1 w=4.4u l=600.0n ng=1
MN0<46> pad gate tie sub! sg13_hv_nmos m=1 w=4.4u l=600.0n ng=1
MN0<47> pad gate tie sub! sg13_hv_nmos m=1 w=4.4u l=600.0n ng=1
MN0<48> pad gate tie sub! sg13_hv_nmos m=1 w=4.4u l=600.0n ng=1
MN0<49> pad gate tie sub! sg13_hv_nmos m=1 w=4.4u l=600.0n ng=1
MN0<50> pad gate tie sub! sg13_hv_nmos m=1 w=4.4u l=600.0n ng=1
MN0<51> pad gate tie sub! sg13_hv_nmos m=1 w=4.4u l=600.0n ng=1
MN0<52> pad gate tie sub! sg13_hv_nmos m=1 w=4.4u l=600.0n ng=1
MN0<53> pad gate tie sub! sg13_hv_nmos m=1 w=4.4u l=600.0n ng=1
MN0<54> pad gate tie sub! sg13_hv_nmos m=1 w=4.4u l=600.0n ng=1
MN0<55> pad gate tie sub! sg13_hv_nmos m=1 w=4.4u l=600.0n ng=1
MN0<56> pad gate tie sub! sg13_hv_nmos m=1 w=4.4u l=600.0n ng=1
MN0<57> pad gate tie sub! sg13_hv_nmos m=1 w=4.4u l=600.0n ng=1
MN0<58> pad gate tie sub! sg13_hv_nmos m=1 w=4.4u l=600.0n ng=1
MN0<59> pad gate tie sub! sg13_hv_nmos m=1 w=4.4u l=600.0n ng=1
MN0<60> pad gate tie sub! sg13_hv_nmos m=1 w=4.4u l=600.0n ng=1
MN0<61> pad gate tie sub! sg13_hv_nmos m=1 w=4.4u l=600.0n ng=1
MN0<62> pad gate tie sub! sg13_hv_nmos m=1 w=4.4u l=600.0n ng=1
MN0<63> pad gate tie sub! sg13_hv_nmos m=1 w=4.4u l=600.0n ng=1
MN0<64> pad gate tie sub! sg13_hv_nmos m=1 w=4.4u l=600.0n ng=1
MN0<65> pad gate tie sub! sg13_hv_nmos m=1 w=4.4u l=600.0n ng=1
MN0<66> pad gate tie sub! sg13_hv_nmos m=1 w=4.4u l=600.0n ng=1
MN0<67> pad gate tie sub! sg13_hv_nmos m=1 w=4.4u l=600.0n ng=1
MN0<68> pad gate tie sub! sg13_hv_nmos m=1 w=4.4u l=600.0n ng=1
MN0<69> pad gate tie sub! sg13_hv_nmos m=1 w=4.4u l=600.0n ng=1
MN0<70> pad gate tie sub! sg13_hv_nmos m=1 w=4.4u l=600.0n ng=1
MN0<71> pad gate tie sub! sg13_hv_nmos m=1 w=4.4u l=600.0n ng=1
MN0<72> pad gate tie sub! sg13_hv_nmos m=1 w=4.4u l=600.0n ng=1
MN0<73> pad gate tie sub! sg13_hv_nmos m=1 w=4.4u l=600.0n ng=1
MN0<74> pad gate tie sub! sg13_hv_nmos m=1 w=4.4u l=600.0n ng=1
MN0<75> pad gate tie sub! sg13_hv_nmos m=1 w=4.4u l=600.0n ng=1
MN0<76> pad gate tie sub! sg13_hv_nmos m=1 w=4.4u l=600.0n ng=1
MN0<77> pad gate tie sub! sg13_hv_nmos m=1 w=4.4u l=600.0n ng=1
MN0<78> pad gate tie sub! sg13_hv_nmos m=1 w=4.4u l=600.0n ng=1
MN0<79> pad gate tie sub! sg13_hv_nmos m=1 w=4.4u l=600.0n ng=1
MN0<80> pad gate tie sub! sg13_hv_nmos m=1 w=4.4u l=600.0n ng=1
MN0<81> pad gate tie sub! sg13_hv_nmos m=1 w=4.4u l=600.0n ng=1
MN0<82> pad gate tie sub! sg13_hv_nmos m=1 w=4.4u l=600.0n ng=1
MN0<83> pad gate tie sub! sg13_hv_nmos m=1 w=4.4u l=600.0n ng=1
MN0<84> pad gate tie sub! sg13_hv_nmos m=1 w=4.4u l=600.0n ng=1
MN0<85> pad gate tie sub! sg13_hv_nmos m=1 w=4.4u l=600.0n ng=1
MN0<86> pad gate tie sub! sg13_hv_nmos m=1 w=4.4u l=600.0n ng=1
MN0<87> pad gate tie sub! sg13_hv_nmos m=1 w=4.4u l=600.0n ng=1
MN0<88> pad gate tie sub! sg13_hv_nmos m=1 w=4.4u l=600.0n ng=1
MN0<89> pad gate tie sub! sg13_hv_nmos m=1 w=4.4u l=600.0n ng=1
MN0<90> pad gate tie sub! sg13_hv_nmos m=1 w=4.4u l=600.0n ng=1
MN0<91> pad gate tie sub! sg13_hv_nmos m=1 w=4.4u l=600.0n ng=1
MN0<92> pad gate tie sub! sg13_hv_nmos m=1 w=4.4u l=600.0n ng=1
MN0<93> pad gate tie sub! sg13_hv_nmos m=1 w=4.4u l=600.0n ng=1
MN0<94> pad gate tie sub! sg13_hv_nmos m=1 w=4.4u l=600.0n ng=1
MN0<95> pad gate tie sub! sg13_hv_nmos m=1 w=4.4u l=600.0n ng=1
MN0<96> pad gate tie sub! sg13_hv_nmos m=1 w=4.4u l=600.0n ng=1
MN0<97> pad gate tie sub! sg13_hv_nmos m=1 w=4.4u l=600.0n ng=1
MN0<98> pad gate tie sub! sg13_hv_nmos m=1 w=4.4u l=600.0n ng=1
MN0<99> pad gate tie sub! sg13_hv_nmos m=1 w=4.4u l=600.0n ng=1
MN0<100> pad gate tie sub! sg13_hv_nmos m=1 w=4.4u l=600.0n ng=1
MN0<101> pad gate tie sub! sg13_hv_nmos m=1 w=4.4u l=600.0n ng=1
MN0<102> pad gate tie sub! sg13_hv_nmos m=1 w=4.4u l=600.0n ng=1
MN0<103> pad gate tie sub! sg13_hv_nmos m=1 w=4.4u l=600.0n ng=1
MN0<104> pad gate tie sub! sg13_hv_nmos m=1 w=4.4u l=600.0n ng=1
MN0<105> pad gate tie sub! sg13_hv_nmos m=1 w=4.4u l=600.0n ng=1
MN0<106> pad gate tie sub! sg13_hv_nmos m=1 w=4.4u l=600.0n ng=1
MN0<107> pad gate tie sub! sg13_hv_nmos m=1 w=4.4u l=600.0n ng=1
MN0<108> pad gate tie sub! sg13_hv_nmos m=1 w=4.4u l=600.0n ng=1
MN0<109> pad gate tie sub! sg13_hv_nmos m=1 w=4.4u l=600.0n ng=1
MN0<110> pad gate tie sub! sg13_hv_nmos m=1 w=4.4u l=600.0n ng=1
MN0<111> pad gate tie sub! sg13_hv_nmos m=1 w=4.4u l=600.0n ng=1
MN0<112> pad gate tie sub! sg13_hv_nmos m=1 w=4.4u l=600.0n ng=1
MN0<113> pad gate tie sub! sg13_hv_nmos m=1 w=4.4u l=600.0n ng=1
MN0<114> pad gate tie sub! sg13_hv_nmos m=1 w=4.4u l=600.0n ng=1
MN0<115> pad gate tie sub! sg13_hv_nmos m=1 w=4.4u l=600.0n ng=1
MN0<116> pad gate tie sub! sg13_hv_nmos m=1 w=4.4u l=600.0n ng=1
MN0<117> pad gate tie sub! sg13_hv_nmos m=1 w=4.4u l=600.0n ng=1
MN0<118> pad gate tie sub! sg13_hv_nmos m=1 w=4.4u l=600.0n ng=1
MN0<119> pad gate tie sub! sg13_hv_nmos m=1 w=4.4u l=600.0n ng=1
MN0<120> pad gate tie sub! sg13_hv_nmos m=1 w=4.4u l=600.0n ng=1
MN0<121> pad gate tie sub! sg13_hv_nmos m=1 w=4.4u l=600.0n ng=1
MN0<122> pad gate tie sub! sg13_hv_nmos m=1 w=4.4u l=600.0n ng=1
MN0<123> pad gate tie sub! sg13_hv_nmos m=1 w=4.4u l=600.0n ng=1
MN0<124> pad gate tie sub! sg13_hv_nmos m=1 w=4.4u l=600.0n ng=1
MN0<125> pad gate tie sub! sg13_hv_nmos m=1 w=4.4u l=600.0n ng=1
MN0<126> pad gate tie sub! sg13_hv_nmos m=1 w=4.4u l=600.0n ng=1
MN0<127> pad gate tie sub! sg13_hv_nmos m=1 w=4.4u l=600.0n ng=1
MN0<128> pad gate tie sub! sg13_hv_nmos m=1 w=4.4u l=600.0n ng=1
MN0<129> pad gate tie sub! sg13_hv_nmos m=1 w=4.4u l=600.0n ng=1
MN0<130> pad gate tie sub! sg13_hv_nmos m=1 w=4.4u l=600.0n ng=1
MN0<131> pad gate tie sub! sg13_hv_nmos m=1 w=4.4u l=600.0n ng=1
MN0<132> pad gate tie sub! sg13_hv_nmos m=1 w=4.4u l=600.0n ng=1
MN0<133> pad gate tie sub! sg13_hv_nmos m=1 w=4.4u l=600.0n ng=1
MN0<134> pad gate tie sub! sg13_hv_nmos m=1 w=4.4u l=600.0n ng=1
MN0<135> pad gate tie sub! sg13_hv_nmos m=1 w=4.4u l=600.0n ng=1
MN0<136> pad gate tie sub! sg13_hv_nmos m=1 w=4.4u l=600.0n ng=1
MN0<137> pad gate tie sub! sg13_hv_nmos m=1 w=4.4u l=600.0n ng=1
MN0<138> pad gate tie sub! sg13_hv_nmos m=1 w=4.4u l=600.0n ng=1
MN0<139> pad gate tie sub! sg13_hv_nmos m=1 w=4.4u l=600.0n ng=1
MN0<140> pad gate tie sub! sg13_hv_nmos m=1 w=4.4u l=600.0n ng=1
MN0<141> pad gate tie sub! sg13_hv_nmos m=1 w=4.4u l=600.0n ng=1
MN0<142> pad gate tie sub! sg13_hv_nmos m=1 w=4.4u l=600.0n ng=1
MN0<143> pad gate tie sub! sg13_hv_nmos m=1 w=4.4u l=600.0n ng=1
MN0<144> pad gate tie sub! sg13_hv_nmos m=1 w=4.4u l=600.0n ng=1
MN0<145> pad gate tie sub! sg13_hv_nmos m=1 w=4.4u l=600.0n ng=1
MN0<146> pad gate tie sub! sg13_hv_nmos m=1 w=4.4u l=600.0n ng=1
MN0<147> pad gate tie sub! sg13_hv_nmos m=1 w=4.4u l=600.0n ng=1
MN0<148> pad gate tie sub! sg13_hv_nmos m=1 w=4.4u l=600.0n ng=1
MN0<149> pad gate tie sub! sg13_hv_nmos m=1 w=4.4u l=600.0n ng=1
MN0<150> pad gate tie sub! sg13_hv_nmos m=1 w=4.4u l=600.0n ng=1
MN0<151> pad gate tie sub! sg13_hv_nmos m=1 w=4.4u l=600.0n ng=1
MN0<152> pad gate tie sub! sg13_hv_nmos m=1 w=4.4u l=600.0n ng=1
MN0<153> pad gate tie sub! sg13_hv_nmos m=1 w=4.4u l=600.0n ng=1
MN0<154> pad gate tie sub! sg13_hv_nmos m=1 w=4.4u l=600.0n ng=1
MN0<155> pad gate tie sub! sg13_hv_nmos m=1 w=4.4u l=600.0n ng=1
MN0<156> pad gate tie sub! sg13_hv_nmos m=1 w=4.4u l=600.0n ng=1
MN0<157> pad gate tie sub! sg13_hv_nmos m=1 w=4.4u l=600.0n ng=1
MN0<158> pad gate tie sub! sg13_hv_nmos m=1 w=4.4u l=600.0n ng=1
MN0<159> pad gate tie sub! sg13_hv_nmos m=1 w=4.4u l=600.0n ng=1
MN0<160> pad gate tie sub! sg13_hv_nmos m=1 w=4.4u l=600.0n ng=1
MN0<161> pad gate tie sub! sg13_hv_nmos m=1 w=4.4u l=600.0n ng=1
MN0<162> pad gate tie sub! sg13_hv_nmos m=1 w=4.4u l=600.0n ng=1
MN0<163> pad gate tie sub! sg13_hv_nmos m=1 w=4.4u l=600.0n ng=1
MN0<164> pad gate tie sub! sg13_hv_nmos m=1 w=4.4u l=600.0n ng=1
MN0<165> pad gate tie sub! sg13_hv_nmos m=1 w=4.4u l=600.0n ng=1
MN0<166> pad gate tie sub! sg13_hv_nmos m=1 w=4.4u l=600.0n ng=1
MN0<167> pad gate tie sub! sg13_hv_nmos m=1 w=4.4u l=600.0n ng=1
MN0<168> pad gate tie sub! sg13_hv_nmos m=1 w=4.4u l=600.0n ng=1
MN0<169> pad gate tie sub! sg13_hv_nmos m=1 w=4.4u l=600.0n ng=1
MN0<170> pad gate tie sub! sg13_hv_nmos m=1 w=4.4u l=600.0n ng=1
MN0<171> pad gate tie sub! sg13_hv_nmos m=1 w=4.4u l=600.0n ng=1
MN0<172> pad gate tie sub! sg13_hv_nmos m=1 w=4.4u l=600.0n ng=1
XR0 tie sub! / ptap1 r=9.999 A=65.61p Perim=32.4u w=8.1u l=8.1u
DD0 sub! gate dantenna m=1 w=480n l=480n a=230.4f p=1.92u
.ENDS

************************************************************************
* Library Name: sg13g2_io
* Cell Name:    sg13g2_RCClampResistor
* View Name:    schematic
************************************************************************

.SUBCKT sg13g2_RCClampResistor pin1 pin2
*.PININFO pin1:B pin2:B
RR29 net15 net16 5.239K $SUB=sub! $[res_rppd] m=1 l=20u w=1u ps=180n trise=0.0 
+ b=0
RR28 net20 net21 5.239K $SUB=sub! $[res_rppd] m=1 l=20u w=1u ps=180n trise=0.0 
+ b=0
RR27 net23 net24 5.239K $SUB=sub! $[res_rppd] m=1 l=20u w=1u ps=180n trise=0.0 
+ b=0
RR24 net17 net18 5.239K $SUB=sub! $[res_rppd] m=1 l=20u w=1u ps=180n trise=0.0 
+ b=0
RR23 net16 net17 5.239K $SUB=sub! $[res_rppd] m=1 l=20u w=1u ps=180n trise=0.0 
+ b=0
RR21 net25 pin2 5.239K $SUB=sub! $[res_rppd] m=1 l=20u w=1u ps=180n trise=0.0 
+ b=0
RR20 net22 net23 5.239K $SUB=sub! $[res_rppd] m=1 l=20u w=1u ps=180n trise=0.0 
+ b=0
RR19 net19 net20 5.239K $SUB=sub! $[res_rppd] m=1 l=20u w=1u ps=180n trise=0.0 
+ b=0
RR17 net24 net25 5.239K $SUB=sub! $[res_rppd] m=1 l=20u w=1u ps=180n trise=0.0 
+ b=0
RR16 net21 net22 5.239K $SUB=sub! $[res_rppd] m=1 l=20u w=1u ps=180n trise=0.0 
+ b=0
RR15 net18 net19 5.239K $SUB=sub! $[res_rppd] m=1 l=20u w=1u ps=180n trise=0.0 
+ b=0
RR14 net5 net6 5.239K $SUB=sub! $[res_rppd] m=1 l=20u w=1u ps=180n trise=0.0 
+ b=0
RR13 net8 net9 5.239K $SUB=sub! $[res_rppd] m=1 l=20u w=1u ps=180n trise=0.0 
+ b=0
RR12 net11 net12 5.239K $SUB=sub! $[res_rppd] m=1 l=20u w=1u ps=180n trise=0.0 
+ b=0
RR11 net14 net15 5.239K $SUB=sub! $[res_rppd] m=1 l=20u w=1u ps=180n trise=0.0 
+ b=0
RR10 net2 net3 5.239K $SUB=sub! $[res_rppd] m=1 l=20u w=1u ps=180n trise=0.0 
+ b=0
RR9 net1 net2 5.239K $SUB=sub! $[res_rppd] m=1 l=20u w=1u ps=180n trise=0.0 b=0
RR8 net13 net14 5.239K $SUB=sub! $[res_rppd] m=1 l=20u w=1u ps=180n trise=0.0 
+ b=0
RR7 net10 net11 5.239K $SUB=sub! $[res_rppd] m=1 l=20u w=1u ps=180n trise=0.0 
+ b=0
RR6 net7 net8 5.239K $SUB=sub! $[res_rppd] m=1 l=20u w=1u ps=180n trise=0.0 b=0
RR5 net4 net5 5.239K $SUB=sub! $[res_rppd] m=1 l=20u w=1u ps=180n trise=0.0 b=0
RR4 net12 net13 5.239K $SUB=sub! $[res_rppd] m=1 l=20u w=1u ps=180n trise=0.0 
+ b=0
RR3 net9 net10 5.239K $SUB=sub! $[res_rppd] m=1 l=20u w=1u ps=180n trise=0.0 
+ b=0
RR2 net6 net7 5.239K $SUB=sub! $[res_rppd] m=1 l=20u w=1u ps=180n trise=0.0 b=0
RR1 net3 net4 5.239K $SUB=sub! $[res_rppd] m=1 l=20u w=1u ps=180n trise=0.0 b=0
RR0 pin1 net1 5.239K $SUB=sub! $[res_rppd] m=1 l=20u w=1u ps=180n trise=0.0 b=0
.ENDS

************************************************************************
* Library Name: sg13g2_io
* Cell Name:    sg13g2_RCClampInverter
* View Name:    schematic
************************************************************************

.SUBCKT sg13g2_RCClampInverter in iovss out supply
*.PININFO in:B iovss:B out:B supply:B
MN1 iovss in iovss sub! sg13_hv_nmos m=1 w=126.000u l=9.5u ng=14
MN0 out in iovss sub! sg13_hv_nmos m=1 w=108.000u l=500.0n ng=12
XR0 iovss sub! / ptap1 r=9.59 A=68.973p Perim=33.22u w=8.305u l=8.305u
MP0 out in supply supply sg13_hv_pmos m=1 w=350.000u l=500.0n ng=50
.ENDS

************************************************************************
* Library Name: sg13g2_io
* Cell Name:    sg13g2_IOPadVdd
* View Name:    schematic
************************************************************************

.SUBCKT sg13g2_IOPadVdd iovdd iovss vdd vss
*.PININFO iovdd:B iovss:B vdd:B vss:B
XI0 net2 vdd iovss / sg13g2_Clamp_N43N43D4R
XI2 vdd net1 / sg13g2_RCClampResistor
XR1 iovss sub! / ptap1 r=456.33m A=1.97n Perim=177.54u w=44.385u l=44.385u
XR0 vss sub! / ptap1 r=22.472 A=24.01p Perim=19.6u w=4.9u l=4.9u
XI1 net1 iovss net2 vdd / sg13g2_RCClampInverter
.ENDS

************************************************************************
* Library Name: sg13g2_io
* Cell Name:    sg13g2_IOPadIOVdd
* View Name:    schematic
************************************************************************

.SUBCKT sg13g2_IOPadIOVdd iovdd iovss vdd vss
*.PININFO iovdd:B iovss:B vdd:B vss:B
XI0 net2 iovdd iovss / sg13g2_Clamp_N43N43D4R
XI2 iovdd net1 / sg13g2_RCClampResistor
XI1 net1 iovss net2 iovdd / sg13g2_RCClampInverter
XR1 iovss sub! / ptap1 r=449.797m A=2n Perim=178.88u w=44.72u l=44.72u
XR0 vss sub! / ptap1 r=22.832 A=23.523p Perim=19.4u w=4.85u l=4.85u
.ENDS

************************************************************************
* Library Name: sg13g2_io
* Cell Name:    sg13g2_DCNDiode
* View Name:    schematic
************************************************************************

.SUBCKT sg13g2_DCNDiode anode cathode guard
*.PININFO anode:B cathode:B guard:B
DD1 sub! cathode dantenna m=1 w=1.26u l=27.78u a=35.003p p=58.08u
DD0 sub! cathode dantenna m=1 w=1.26u l=27.78u a=35.003p p=58.08u
XR0 anode sub! / ptap1 r=5.191 A=141.253p Perim=47.54u w=11.885u l=11.885u
.ENDS

************************************************************************
* Library Name: sg13g2_io
* Cell Name:    sg13g2_DCPDiode
* View Name:    schematic
************************************************************************

.SUBCKT sg13g2_DCPDiode anode cathode guard
*.PININFO anode:B cathode:B guard:B
DD1 anode cathode dpantenna m=1 w=1.26u l=27.78u a=35.003p p=58.08u
DD0 anode cathode dpantenna m=1 w=1.26u l=27.78u a=35.003p p=58.08u
XR0 guard sub! / ptap1 r=17.289 A=33.524p Perim=23.16u w=5.79u l=5.79u
.ENDS

************************************************************************
* Library Name: sg13g2_io
* Cell Name:    sg13g2_IOPadVss
* View Name:    schematic
************************************************************************

.SUBCKT sg13g2_IOPadVss iovdd iovss vdd vss
*.PININFO iovdd:B iovss:B vdd:B vss:B
XI1 iovss vss iovss / sg13g2_DCNDiode
XI2 vss iovdd iovss / sg13g2_DCPDiode
XR1 iovss sub! / ptap1 r=174.346m A=5.329n Perim=292u w=73u l=73u
XR0 vss sub! / ptap1 r=22.832 A=23.523p Perim=19.4u w=4.85u l=4.85u
.ENDS

************************************************************************
* Library Name: sg13g2_io
* Cell Name:    sg13g2_Filler4000
* View Name:    schematic
************************************************************************

.SUBCKT sg13g2_Filler4000 iovdd iovss vdd vss
*.PININFO iovdd:B iovss:B vdd:B vss:B
XR1 vss sub! / ptap1 r=63.078 A=5.856p Perim=9.68u w=2.42u l=2.42u
XR0 iovss sub! / ptap1 r=625.742m A=1.416n Perim=150.5u w=37.625u l=37.625u
.ENDS

************************************************************************
* Library Name: sg13g2_io
* Cell Name:    sg13g2_io_inv_x1
* View Name:    schematic
************************************************************************

.SUBCKT sg13g2_io_inv_x1 i nq vdd vss
*.PININFO i:I nq:O vdd:B vss:B
MN0 nq i vss sub! sg13_lv_nmos m=1 w=3.93u l=130.00n ng=1
MP0 nq i vdd vdd sg13_lv_pmos m=1 w=4.41u l=130.00n ng=1
XR0 vss sub! / ptap1 r=258.978 A=624.1f Perim=3.16u w=790n l=790n
.ENDS

************************************************************************
* Library Name: sg13g2_io
* Cell Name:    sg13g2_LevelUp
* View Name:    schematic
************************************************************************

.SUBCKT sg13g2_LevelUp i iovdd o vdd vss
*.PININFO i:I o:O iovdd:B vdd:B vss:B
MN0 net2 i vss sub! sg13_lv_nmos m=1 w=2.75u l=130.00n ng=1
MP0 net2 i vdd vdd sg13_lv_pmos m=1 w=4.75u l=130.00n ng=1
MN3 o net4 vss sub! sg13_hv_nmos m=1 w=1.9u l=450.00n ng=1
MN2 net4 i vss sub! sg13_hv_nmos m=1 w=1.9u l=450.00n ng=1
MN1 net3 net2 vss sub! sg13_hv_nmos m=1 w=1.9u l=450.00n ng=1
MP3 o net4 iovdd iovdd sg13_hv_pmos m=1 w=3.9u l=450.00n ng=1
MP2 net3 net4 iovdd iovdd sg13_hv_pmos m=1 w=300.0n l=450.00n ng=1
MP1 net4 net3 iovdd iovdd sg13_hv_pmos m=1 w=300.0n l=450.00n ng=1
XR0 vss sub! / ptap1 r=207.099 A=912.025f Perim=3.82u w=955n l=955n
.ENDS

************************************************************************
* Library Name: sg13g2_io
* Cell Name:    sg13g2_io_nor2_x1
* View Name:    schematic
************************************************************************

.SUBCKT sg13g2_io_nor2_x1 i0 i1 nq vdd vss
*.PININFO i0:I i1:I nq:O vdd:B vss:B
MN0 nq i0 vss sub! sg13_lv_nmos m=1 w=3.93u l=130.00n ng=1
MN1 nq i1 vss sub! sg13_lv_nmos m=1 w=3.93u l=130.00n ng=1
MP1 net1 i0 vdd vdd sg13_lv_pmos m=1 w=4.41u l=130.00n ng=1
MP0 nq i1 net1 vdd sg13_lv_pmos m=1 w=4.41u l=130.00n ng=1
XR0 vss sub! / ptap1 r=251.534 A=656.1f Perim=3.24u w=810n l=810n
.ENDS

************************************************************************
* Library Name: sg13g2_io
* Cell Name:    sg13g2_io_tie
* View Name:    schematic
************************************************************************

.SUBCKT sg13g2_io_tie vdd vss
*.PININFO vdd:B vss:B
XR0 vss sub! / ptap1 r=258.978 A=624.1f Perim=3.16u w=790n l=790n
.ENDS

************************************************************************
* Library Name: sg13g2_io
* Cell Name:    sg13g2_io_nand2_x1
* View Name:    schematic
************************************************************************

.SUBCKT sg13g2_io_nand2_x1 i0 i1 nq vdd vss
*.PININFO i0:I i1:I nq:O vdd:B vss:B
MP1 nq i1 vdd vdd sg13_lv_pmos m=1 w=4.41u l=130.00n ng=1
MP0 nq i0 vdd vdd sg13_lv_pmos m=1 w=4.41u l=130.00n ng=1
MN1 net1 i0 vss sub! sg13_lv_nmos m=1 w=3.93u l=130.00n ng=1
MN0 nq i1 net1 sub! sg13_lv_nmos m=1 w=3.93u l=130.00n ng=1
XR0 vss sub! / ptap1 r=251.534 A=656.1f Perim=3.24u w=810n l=810n
.ENDS

************************************************************************
* Library Name: sg13g2_io
* Cell Name:    sg13g2_GateDecode
* View Name:    schematic
************************************************************************

.SUBCKT sg13g2_GateDecode core en iovdd ngate pgate vdd vss
*.PININFO core:I en:I ngate:O pgate:O iovdd:B vdd:B vss:B
XI2 en net3 vdd vss / sg13g2_io_inv_x1
XI4 net4 iovdd ngate vdd vss / sg13g2_LevelUp
XI3 net2 iovdd pgate vdd vss / sg13g2_LevelUp
XI0 core net3 net4 vdd vss / sg13g2_io_nor2_x1
XI5 vdd vss / sg13g2_io_tie
XI1 core en net2 vdd vss / sg13g2_io_nand2_x1
.ENDS

************************************************************************
* Library Name: sg13g2_io
* Cell Name:    sg13g2_Clamp_N2N2D
* View Name:    schematic
************************************************************************

.SUBCKT sg13g2_Clamp_N2N2D gate iovss pad
*.PININFO gate:B iovss:B pad:B
XR0 iovss sub! / ptap1 r=11.438 A=55.801p Perim=29.88u w=7.47u l=7.47u
MN1 iovss gate pad sub! sg13_hv_nmos m=1 w=4.4u l=600.0n ng=1
MN0 pad gate iovss sub! sg13_hv_nmos m=1 w=4.4u l=600.0n ng=1
DD0 sub! gate dantenna m=1 w=780.00n l=780.00n a=608.400f p=3.12u
.ENDS

************************************************************************
* Library Name: sg13g2_io
* Cell Name:    sg13g2_Clamp_P2N2D
* View Name:    schematic
************************************************************************

.SUBCKT sg13g2_Clamp_P2N2D gate iovdd iovss pad
*.PININFO gate:B iovdd:B iovss:B pad:B
DD0 gate iovdd dpantenna m=1 w=480n l=480n a=230.4f p=1.92u
MP1 iovdd gate pad iovdd sg13_hv_pmos m=1 w=13.32u l=600.0n ng=2
MP0 pad gate iovdd iovdd sg13_hv_pmos m=1 w=13.32u l=600.0n ng=2
XR0 iovss sub! / ptap1 r=9.826 A=66.994p Perim=32.74u w=8.185u l=8.185u
.ENDS

************************************************************************
* Library Name: sg13g2_io
* Cell Name:    sg13g2_SecondaryProtection
* View Name:    schematic
************************************************************************

.SUBCKT sg13g2_SecondaryProtection core minus pad plus
*.PININFO core:B minus:B pad:B plus:B
RR0 pad core 586.899 $SUB=sub! $[res_rppd] m=1 l=2u w=1u ps=180n trise=0.0 b=0
DD0 sub! core dantenna m=1 w=640n l=3.1u a=1.984p p=7.48u
XR1 minus sub! / ptap1 r=46.556 A=9.03p Perim=12.02u w=3.005u l=3.005u
DD1 core plus dpantenna m=1 w=640n l=4.98u a=3.187p p=11.24u
.ENDS

************************************************************************
* Library Name: sg13g2_io
* Cell Name:    sg13g2_LevelDown
* View Name:    schematic
************************************************************************

.SUBCKT sg13g2_LevelDown core iovdd iovss pad vdd vss
*.PININFO core:O iovdd:B iovss:B pad:B vdd:B vss:B
MP0 net2 net4 vdd vdd sg13_hv_pmos m=1 w=4.65u l=450.00n ng=1
MN0 net2 net4 vss sub! sg13_hv_nmos m=1 w=2.65u l=450.00n ng=1
MN1 core net2 vss sub! sg13_lv_nmos m=1 w=2.75u l=130.00n ng=1
MP1 core net2 vdd vdd sg13_lv_pmos m=1 w=4.75u l=130.00n ng=1
XR0 vss sub! / ptap1 r=127.332 A=2.016p Perim=5.68u w=1.42u l=1.42u
XI0 net4 iovss pad iovdd / sg13g2_SecondaryProtection
.ENDS

************************************************************************
* Library Name: sg13g2_io
* Cell Name:    sg13g2_IOPadInOut4mA
* View Name:    schematic
************************************************************************

.SUBCKT sg13g2_IOPadInOut4mA c2p c2p_en iovdd iovss p2c pad vdd vss
*.PININFO c2p:I c2p_en:I p2c:O iovdd:B iovss:B pad:B vdd:B vss:B
XI2 pad iovdd iovss / sg13g2_DCPDiode
XI0 c2p c2p_en iovdd net2 net1 vdd vss / sg13g2_GateDecode
XI7 net2 iovss pad / sg13g2_Clamp_N2N2D
XI6 net1 iovdd iovss pad / sg13g2_Clamp_P2N2D
XI1 p2c iovdd iovss pad vdd vss / sg13g2_LevelDown
XR1 vss sub! / ptap1 r=26.933 A=18.966p Perim=17.42u w=4.355u l=4.355u
XR0 iovss sub! / ptap1 r=214.134m A=4.314n Perim=262.72u w=65.68u l=65.68u
XI3 iovss pad iovdd / sg13g2_DCNDiode
.ENDS

************************************************************************
* Library Name: sg13g2_io
* Cell Name:    sg13g2_Clamp_P15N15D
* View Name:    schematic
************************************************************************

.SUBCKT sg13g2_Clamp_P15N15D gate iovdd iovss pad
*.PININFO gate:B iovdd:B iovss:B pad:B
DD0 gate iovdd dpantenna m=1 w=780.00n l=780.00n a=608.400f p=3.12u
XR0 iovss sub! / ptap1 r=9.826 A=66.994p Perim=32.74u w=8.185u l=8.185u
MP1 pad gate iovdd iovdd sg13_hv_pmos m=1 w=199.8u l=600.0n ng=30
.ENDS

************************************************************************
* Library Name: sg13g2_io
* Cell Name:    sg13g2_Clamp_N15N15D
* View Name:    schematic
************************************************************************

.SUBCKT sg13g2_Clamp_N15N15D gate iovss pad
*.PININFO gate:B iovss:B pad:B
XR0 iovss sub! / ptap1 r=11.438 A=55.801p Perim=29.88u w=7.47u l=7.47u
MN0 pad gate iovss sub! sg13_hv_nmos m=1 w=66.000u l=600.0n ng=15
DD0 sub! gate dantenna m=1 w=780.00n l=780.00n a=608.400f p=3.12u
.ENDS

************************************************************************
* Library Name: sg13g2_io
* Cell Name:    sg13g2_IOPadInOut30mA
* View Name:    schematic
************************************************************************

.SUBCKT sg13g2_IOPadInOut30mA c2p c2p_en iovdd iovss p2c pad vdd vss
*.PININFO c2p:I c2p_en:I p2c:O iovdd:B iovss:B pad:B vdd:B vss:B
XI1 p2c iovdd iovss pad vdd vss / sg13g2_LevelDown
XI2 pad iovdd iovss / sg13g2_DCPDiode
XI7 net1 iovdd iovss pad / sg13g2_Clamp_P15N15D
XI3 iovss pad iovdd / sg13g2_DCNDiode
XI6 net2 iovss pad / sg13g2_Clamp_N15N15D
XR4 vss sub! / ptap1 r=26.746 A=19.141p Perim=17.5u w=4.375u l=4.375u
XR3 iovss sub! / ptap1 r=214.165m A=4.313n Perim=262.7u w=65.675u l=65.675u
XI0 c2p c2p_en iovdd net2 net1 vdd vss / sg13g2_GateDecode
.ENDS

************************************************************************
* Library Name: sg13g2_io
* Cell Name:    sg13g2_LevelUpInv
* View Name:    schematic
************************************************************************

.SUBCKT sg13g2_LevelUpInv i iovdd o vdd vss
*.PININFO i:I o:O iovdd:B vdd:B vss:B
MN0 net2 i vss sub! sg13_lv_nmos m=1 w=2.75u l=130.00n ng=1
MP0 net2 i vdd vdd sg13_lv_pmos m=1 w=4.75u l=130.00n ng=1
MN3 o net4 vss sub! sg13_hv_nmos m=1 w=1.9u l=450.00n ng=1
MN2 net4 net2 vss sub! sg13_hv_nmos m=1 w=1.9u l=450.00n ng=1
MN1 net3 i vss sub! sg13_hv_nmos m=1 w=1.9u l=450.00n ng=1
MP3 o net4 iovdd iovdd sg13_hv_pmos m=1 w=3.9u l=450.00n ng=1
MP2 net3 net4 iovdd iovdd sg13_hv_pmos m=1 w=300.0n l=450.00n ng=1
MP1 net4 net3 iovdd iovdd sg13_hv_pmos m=1 w=300.0n l=450.00n ng=1
XR0 vss sub! / ptap1 r=190.268 A=1.051p Perim=4.1u w=1.025u l=1.025u
.ENDS

************************************************************************
* Library Name: sg13g2_io
* Cell Name:    sg13g2_GateLevelUpInv
* View Name:    schematic
************************************************************************

.SUBCKT sg13g2_GateLevelUpInv core iovdd ngate pgate vdd vss
*.PININFO core:I ngate:O pgate:O iovdd:B vdd:B vss:B
XI1 core iovdd pgate vdd vss / sg13g2_LevelUpInv
XI0 core iovdd ngate vdd vss / sg13g2_LevelUpInv
.ENDS

************************************************************************
* Library Name: sg13g2_io
* Cell Name:    sg13g2_IOPadOut4mA
* View Name:    schematic
************************************************************************

.SUBCKT sg13g2_IOPadOut4mA c2p iovdd iovss pad vdd vss
*.PININFO c2p:I iovdd:B iovss:B pad:B vdd:B vss:B
XI6 c2p iovdd net2 net1 vdd vss / sg13g2_GateLevelUpInv
XI7 net1 iovdd iovss pad / sg13g2_Clamp_P2N2D
XI8 net2 iovss pad / sg13g2_Clamp_N2N2D