************************************************************************
*
* Copyright 2023 IHP PDK Authors
* 
* Licensed under the Apache License, Version 2.0 (the "License");
* you may not use this file except in compliance with the License.
* You may obtain a copy of the License at
* 
*    https://www.apache.org/licenses/LICENSE-2.0
* 
* Unless required by applicable law or agreed to in writing, software
* distributed under the License is distributed on an "AS IS" BASIS,
* WITHOUT WARRANTIES OR CONDITIONS OF ANY KIND, either express or implied.
* See the License for the specific language governing permissions and
* limitations under the License.
*
************************************************************************

* Library name: sg13g2_stdcell
* Cell name: sg13g2_a21o_1
* View name: schematic
.subckt sg13g2_a21o_1 X A1 A2 B1 VDD VSS
XN0 net1 A1 net2 VSS sg13_lv_nmos w=640.00n l=130.00n ng=1 ad=2.176e-13 as=2.176e-13 pd=1.96e-06 ps=1.96e-06 m=1
XN1 net2 A2 VSS VSS sg13_lv_nmos w=640.00n l=130.00n ng=1 ad=2.176e-13 as=2.176e-13 pd=1.96e-06 ps=1.96e-06 m=1
XN2 net1 B1 VSS VSS sg13_lv_nmos w=640.00n l=130.00n ng=1 ad=2.176e-13 as=2.176e-13 pd=1.96e-06 ps=1.96e-06 m=1
XN3 X net1 VSS VSS sg13_lv_nmos w=740.00n l=130.00n ng=1 ad=2.516e-13 as=2.516e-13 pd=2.16e-06 ps=2.16e-06 m=1
XP0 net1 B1 net3 VDD sg13_lv_pmos w=1.000u l=130.00n ng=1 ad=3.4e-13 as=3.4e-13 pd=2.68e-06 ps=2.68e-06 m=1
XP1 net3 A1 VDD VDD sg13_lv_pmos w=1.000u l=130.00n ng=1 ad=3.4e-13 as=3.4e-13 pd=2.68e-06 ps=2.68e-06 m=1
XP2 net3 A2 VDD VDD sg13_lv_pmos w=1.000u l=130.00n ng=1 ad=3.4e-13 as=3.4e-13 pd=2.68e-06 ps=2.68e-06 m=1
XP3 X net1 VDD VDD sg13_lv_pmos w=1.12u l=130.00n ng=1 ad=3.808e-13 as=3.808e-13 pd=2.92e-06 ps=2.92e-06 m=1
.ends
* End of subcircuit definition.

* Library name: sg13g2_stdcell
* Cell name: sg13g2_a21o_2
* View name: schematic
.subckt sg13g2_a21o_2 X A1 A2 B1 VDD VSS
XN0 net1 A1 net2 VSS sg13_lv_nmos w=740.00n l=130.00n ng=1 ad=2.516e-13 as=2.516e-13 pd=2.16e-06 ps=2.16e-06 m=1
XN1 net2 A2 VSS VSS sg13_lv_nmos w=740.00n l=130.00n ng=1 ad=2.516e-13 as=2.516e-13 pd=2.16e-06 ps=2.16e-06 m=1
XN2 net1 B1 VSS VSS sg13_lv_nmos w=740.00n l=130.00n ng=1 ad=2.516e-13 as=2.516e-13 pd=2.16e-06 ps=2.16e-06 m=1
XN3 X net1 VSS VSS sg13_lv_nmos w=1.48u l=130.00n ng=2 ad=2.812e-13 as=5.032e-13 pd=2.24e-06 ps=4.32e-06 m=1
XP0 net1 B1 net3 VDD sg13_lv_pmos w=1.000u l=130.00n ng=1 ad=3.4e-13 as=3.4e-13 pd=2.68e-06 ps=2.68e-06 m=1
XP1 net3 A1 VDD VDD sg13_lv_pmos w=1.000u l=130.00n ng=1 ad=3.4e-13 as=3.4e-13 pd=2.68e-06 ps=2.68e-06 m=1
XP2 net3 A2 VDD VDD sg13_lv_pmos w=1.000u l=130.00n ng=1 ad=3.4e-13 as=3.4e-13 pd=2.68e-06 ps=2.68e-06 m=1
XP3 X net1 VDD VDD sg13_lv_pmos w=2.24u l=130.00n ng=2 ad=4.256e-13 as=7.616e-13 pd=3e-06 ps=5.84e-06 m=1
.ends
* End of subcircuit definition.

* Library name: sg13g2_stdcell
* Cell name: sg13g2_a21oi_1
* View name: schematic
.subckt sg13g2_a21oi_1 Y A1 A2 B1 VDD VSS
XMNB0 Y B1 VSS VSS sg13_lv_nmos w=740.00n l=130.00n ng=1 ad=2.516e-13 as=2.516e-13 pd=2.16e-06 ps=2.16e-06 m=1
XMNA1 sndA1 A2 VSS VSS sg13_lv_nmos w=740.00n l=130.00n ng=1 ad=2.516e-13 as=2.516e-13 pd=2.16e-06 ps=2.16e-06 m=1
XMNA0 Y A1 sndA1 VSS sg13_lv_nmos w=740.00n l=130.00n ng=1 ad=2.516e-13 as=2.516e-13 pd=2.16e-06 ps=2.16e-06 m=1
XMPB0 Y B1 pndA VDD sg13_lv_pmos w=1.12u l=130.00n ng=1 ad=3.808e-13 as=3.808e-13 pd=2.92e-06 ps=2.92e-06 m=1
XMPA1 pndA A2 VDD VDD sg13_lv_pmos w=1.12u l=130.00n ng=1 ad=3.808e-13 as=3.808e-13 pd=2.92e-06 ps=2.92e-06 m=1
XMPA0 pndA A1 VDD VDD sg13_lv_pmos w=1.12u l=130.00n ng=1 ad=3.808e-13 as=3.808e-13 pd=2.92e-06 ps=2.92e-06 m=1
.ends
* End of subcircuit definition.

* Library name: sg13g2_stdcell
* Cell name: sg13g2_a21oi_2
* View name: schematic
.subckt sg13g2_a21oi_2 Y A1 A2 B1 VDD VSS
XMNB0 Y B1 VSS VSS sg13_lv_nmos w=1.48u l=130.00n ng=2 ad=2.812e-13 as=5.032e-13 pd=2.24e-06 ps=4.32e-06 m=1
XMNA1 sndA1 A2 VSS VSS sg13_lv_nmos w=1.48u l=130.00n ng=2 ad=2.812e-13 as=5.032e-13 pd=2.24e-06 ps=4.32e-06 m=1
XMNA0 Y A1 sndA1 VSS sg13_lv_nmos w=1.48u l=130.00n ng=2 ad=2.812e-13 as=5.032e-13 pd=2.24e-06 ps=4.32e-06 m=1
XMPB0 Y B1 pndA VDD sg13_lv_pmos w=2.24u l=130.00n ng=2 ad=4.256e-13 as=7.616e-13 pd=3e-06 ps=5.84e-06 m=1
XMPA1 pndA A2 VDD VDD sg13_lv_pmos w=2.24u l=130.00n ng=2 ad=4.256e-13 as=7.616e-13 pd=3e-06 ps=5.84e-06 m=1
XMPA0 pndA A1 VDD VDD sg13_lv_pmos w=2.24u l=130.00n ng=2 ad=4.256e-13 as=7.616e-13 pd=3e-06 ps=5.84e-06 m=1
.ends
* End of subcircuit definition.

* Library name: sg13g2_stdcell
* Cell name: sg13g2_a221oi_1
* View name: schematic
.subckt sg13g2_a221oi_1 Y A1 A2 B1 B2 C1 VDD VSS
XMPC0 Y C1 pndB VDD sg13_lv_pmos w=1.12u l=130.00n ng=1 ad=3.808e-13 as=3.808e-13 pd=2.92e-06 ps=2.92e-06 m=1
XMPB1 pndB B2 pndA VDD sg13_lv_pmos w=1.12u l=130.00n ng=1 ad=3.808e-13 as=3.808e-13 pd=2.92e-06 ps=2.92e-06 m=1
XMPB0 pndB B1 pndA VDD sg13_lv_pmos w=1.12u l=130.00n ng=1 ad=3.808e-13 as=3.808e-13 pd=2.92e-06 ps=2.92e-06 m=1
XMPA1 pndA A2 VDD VDD sg13_lv_pmos w=1.12u l=130.00n ng=1 ad=3.808e-13 as=3.808e-13 pd=2.92e-06 ps=2.92e-06 m=1
XMPA0 pndA A1 VDD VDD sg13_lv_pmos w=1.12u l=130.00n ng=1 ad=3.808e-13 as=3.808e-13 pd=2.92e-06 ps=2.92e-06 m=1
XMNC0 Y C1 VSS VSS sg13_lv_nmos w=740.00n l=130.00n ng=1 ad=2.516e-13 as=2.516e-13 pd=2.16e-06 ps=2.16e-06 m=1
XMNB1 sndB1 B2 VSS VSS sg13_lv_nmos w=740.00n l=130.00n ng=1 ad=2.516e-13 as=2.516e-13 pd=2.16e-06 ps=2.16e-06 m=1
XMNB0 Y B1 sndB1 VSS sg13_lv_nmos w=740.00n l=130.00n ng=1 ad=2.516e-13 as=2.516e-13 pd=2.16e-06 ps=2.16e-06 m=1
XMNA1 sndA1 A2 VSS VSS sg13_lv_nmos w=740.00n l=130.00n ng=1 ad=2.516e-13 as=2.516e-13 pd=2.16e-06 ps=2.16e-06 m=1
XMNA0 Y A1 sndA1 VSS sg13_lv_nmos w=740.00n l=130.00n ng=1 ad=2.516e-13 as=2.516e-13 pd=2.16e-06 ps=2.16e-06 m=1
.ends
* End of subcircuit definition.

* Library name: sg13g2_stdcell
* Cell name: sg13g2_and2_1
* View name: schematic
.subckt sg13g2_and2_1 X A B VDD VSS
XX0 net4 A net2 VSS sg13_lv_nmos w=640.00n l=130.00n ng=1 ad=2.176e-13 as=2.176e-13 pd=1.96e-06 ps=1.96e-06 m=1
XX2 X net4 VSS VSS sg13_lv_nmos w=740.00n l=130.00n ng=1 ad=2.516e-13 as=2.516e-13 pd=2.16e-06 ps=2.16e-06 m=1
XX3 net2 B VSS VSS sg13_lv_nmos w=640.00n l=130.00n ng=1 ad=2.176e-13 as=2.176e-13 pd=1.96e-06 ps=1.96e-06 m=1
XX1 net4 B VDD VDD sg13_lv_pmos w=840.00n l=130.00n ng=1 ad=2.856e-13 as=2.856e-13 pd=2.36e-06 ps=2.36e-06 m=1
XX4 X net4 VDD VDD sg13_lv_pmos w=1.12u l=130.00n ng=1 ad=3.808e-13 as=3.808e-13 pd=2.92e-06 ps=2.92e-06 m=1
XX5 net4 A VDD VDD sg13_lv_pmos w=840.00n l=130.00n ng=1 ad=2.856e-13 as=2.856e-13 pd=2.36e-06 ps=2.36e-06 m=1
.ends
* End of subcircuit definition.

* Library name: sg13g2_stdcell
* Cell name: sg13g2_and2_2
* View name: schematic
.subckt sg13g2_and2_2 X A B VDD VSS
XX0 net4 A net2 VSS sg13_lv_nmos w=640.00n l=130.00n ng=1 ad=2.176e-13 as=2.176e-13 pd=1.96e-06 ps=1.96e-06 m=1
XX2 X net4 VSS VSS sg13_lv_nmos w=1.48u l=130.00n ng=2 ad=2.812e-13 as=5.032e-13 pd=2.24e-06 ps=4.32e-06 m=1
XX3 net2 B VSS VSS sg13_lv_nmos w=640.00n l=130.00n ng=1 ad=2.176e-13 as=2.176e-13 pd=1.96e-06 ps=1.96e-06 m=1
XX1 net4 B VDD VDD sg13_lv_pmos w=840.00n l=130.00n ng=1 ad=2.856e-13 as=2.856e-13 pd=2.36e-06 ps=2.36e-06 m=1
XX4 X net4 VDD VDD sg13_lv_pmos w=2.24u l=130.00n ng=2 ad=4.256e-13 as=7.616e-13 pd=3e-06 ps=5.84e-06 m=1
XX5 net4 A VDD VDD sg13_lv_pmos w=840.00n l=130.00n ng=1 ad=2.856e-13 as=2.856e-13 pd=2.36e-06 ps=2.36e-06 m=1
.ends
* End of subcircuit definition.

* Library name: sg13g2_stdcell
* Cell name: sg13g2_and3_1
* View name: schematic
.subckt sg13g2_and3_1 X A B C VDD VSS
XX0 net3 C VSS VSS sg13_lv_nmos w=640.00n l=130.00n ng=1 ad=2.176e-13 as=2.176e-13 pd=1.96e-06 ps=1.96e-06 m=1
XX2 X net2 VSS VSS sg13_lv_nmos w=740.00n l=130.00n ng=1 ad=2.516e-13 as=2.516e-13 pd=2.16e-06 ps=2.16e-06 m=1
XX5 net2 A net1 VSS sg13_lv_nmos w=640.00n l=130.00n ng=1 ad=2.176e-13 as=2.176e-13 pd=1.96e-06 ps=1.96e-06 m=1
XX6 net1 B net3 VSS sg13_lv_nmos w=640.00n l=130.00n ng=1 ad=2.176e-13 as=2.176e-13 pd=1.96e-06 ps=1.96e-06 m=1
XX3 X net2 VDD VDD sg13_lv_pmos w=1.12u l=130.00n ng=1 ad=3.808e-13 as=3.808e-13 pd=2.92e-06 ps=2.92e-06 m=1
XX1 net2 B VDD VDD sg13_lv_pmos w=840.00n l=130.00n ng=1 ad=2.856e-13 as=2.856e-13 pd=2.36e-06 ps=2.36e-06 m=1
XX4 net2 A VDD VDD sg13_lv_pmos w=840.00n l=130.00n ng=1 ad=2.856e-13 as=2.856e-13 pd=2.36e-06 ps=2.36e-06 m=1
XX7 net2 C VDD VDD sg13_lv_pmos w=840.00n l=130.00n ng=1 ad=2.856e-13 as=2.856e-13 pd=2.36e-06 ps=2.36e-06 m=1
.ends
* End of subcircuit definition.

* Library name: sg13g2_stdcell
* Cell name: sg13g2_and3_2
* View name: schematic
.subckt sg13g2_and3_2 X A B C VDD VSS
XX0 net3 C VSS VSS sg13_lv_nmos w=640.00n l=130.00n ng=1 ad=2.176e-13 as=2.176e-13 pd=1.96e-06 ps=1.96e-06 m=1
XX2 X net2 VSS VSS sg13_lv_nmos w=1.48u l=130.00n ng=2 ad=2.812e-13 as=5.032e-13 pd=2.24e-06 ps=4.32e-06 m=1
XX5 net2 A net1 VSS sg13_lv_nmos w=640.00n l=130.00n ng=1 ad=2.176e-13 as=2.176e-13 pd=1.96e-06 ps=1.96e-06 m=1
XX6 net1 B net3 VSS sg13_lv_nmos w=640.00n l=130.00n ng=1 ad=2.176e-13 as=2.176e-13 pd=1.96e-06 ps=1.96e-06 m=1
XX3 X net2 VDD VDD sg13_lv_pmos w=2.24u l=130.00n ng=2 ad=4.256e-13 as=7.616e-13 pd=3e-06 ps=5.84e-06 m=1
XX1 net2 B VDD VDD sg13_lv_pmos w=840.00n l=130.00n ng=1 ad=2.856e-13 as=2.856e-13 pd=2.36e-06 ps=2.36e-06 m=1
XX4 net2 A VDD VDD sg13_lv_pmos w=840.00n l=130.00n ng=1 ad=2.856e-13 as=2.856e-13 pd=2.36e-06 ps=2.36e-06 m=1
XX7 net2 C VDD VDD sg13_lv_pmos w=840.00n l=130.00n ng=1 ad=2.856e-13 as=2.856e-13 pd=2.36e-06 ps=2.36e-06 m=1
.ends
* End of subcircuit definition.

* Library name: sg13g2_stdcell
* Cell name: sg13g2_and4_1
* View name: schematic
.subckt sg13g2_and4_1 X A B C D VDD VSS
XN4 net17 D VSS VSS sg13_lv_nmos w=640.00n l=130.00n ng=1 ad=2.176e-13 as=2.176e-13 pd=1.96e-06 ps=1.96e-06 m=1
XN3 net16 C net17 VSS sg13_lv_nmos w=640.00n l=130.00n ng=1 ad=2.176e-13 as=2.176e-13 pd=1.96e-06 ps=1.96e-06 m=1
XN2 net15 B net16 VSS sg13_lv_nmos w=640.00n l=130.00n ng=1 ad=2.176e-13 as=2.176e-13 pd=1.96e-06 ps=1.96e-06 m=1
XN1 net1 A net15 VSS sg13_lv_nmos w=640.00n l=130.00n ng=1 ad=2.176e-13 as=2.176e-13 pd=1.96e-06 ps=1.96e-06 m=1
XN0 X net1 VSS VSS sg13_lv_nmos w=740.00n l=130.00n ng=1 ad=2.516e-13 as=2.516e-13 pd=2.16e-06 ps=2.16e-06 m=1
XP0 net1 A VDD VDD sg13_lv_pmos w=840.00n l=130.00n ng=1 ad=2.856e-13 as=2.856e-13 pd=2.36e-06 ps=2.36e-06 m=1
XP4 X net1 VDD VDD sg13_lv_pmos w=1.12u l=130.00n ng=1 ad=3.808e-13 as=3.808e-13 pd=2.92e-06 ps=2.92e-06 m=1
XP3 net1 D VDD VDD sg13_lv_pmos w=840.00n l=130.00n ng=1 ad=2.856e-13 as=2.856e-13 pd=2.36e-06 ps=2.36e-06 m=1
XP2 net1 C VDD VDD sg13_lv_pmos w=840.00n l=130.00n ng=1 ad=2.856e-13 as=2.856e-13 pd=2.36e-06 ps=2.36e-06 m=1
XP1 net1 B VDD VDD sg13_lv_pmos w=840.00n l=130.00n ng=1 ad=2.856e-13 as=2.856e-13 pd=2.36e-06 ps=2.36e-06 m=1
.ends
* End of subcircuit definition.

* Library name: sg13g2_stdcell
* Cell name: sg13g2_and4_2
* View name: schematic
.subckt sg13g2_and4_2 X A B C D VDD VSS
XN4 net17 D VSS VSS sg13_lv_nmos w=640.00n l=130.00n ng=1 ad=2.176e-13 as=2.176e-13 pd=1.96e-06 ps=1.96e-06 m=1
XN3 net16 C net17 VSS sg13_lv_nmos w=640.00n l=130.00n ng=1 ad=2.176e-13 as=2.176e-13 pd=1.96e-06 ps=1.96e-06 m=1
XN2 net15 B net16 VSS sg13_lv_nmos w=640.00n l=130.00n ng=1 ad=2.176e-13 as=2.176e-13 pd=1.96e-06 ps=1.96e-06 m=1
XN1 net1 A net15 VSS sg13_lv_nmos w=640.00n l=130.00n ng=1 ad=2.176e-13 as=2.176e-13 pd=1.96e-06 ps=1.96e-06 m=1
XN0 X net1 VSS VSS sg13_lv_nmos w=1.48u l=130.00n ng=2 ad=2.812e-13 as=5.032e-13 pd=2.24e-06 ps=4.32e-06 m=1
XP0 net1 A VDD VDD sg13_lv_pmos w=840.00n l=130.00n ng=1 ad=2.856e-13 as=2.856e-13 pd=2.36e-06 ps=2.36e-06 m=1
XP4 X net1 VDD VDD sg13_lv_pmos w=2.24u l=130.00n ng=2 ad=4.256e-13 as=7.616e-13 pd=3e-06 ps=5.84e-06 m=1
XP3 net1 D VDD VDD sg13_lv_pmos w=840.00n l=130.00n ng=1 ad=2.856e-13 as=2.856e-13 pd=2.36e-06 ps=2.36e-06 m=1
XP2 net1 C VDD VDD sg13_lv_pmos w=840.00n l=130.00n ng=1 ad=2.856e-13 as=2.856e-13 pd=2.36e-06 ps=2.36e-06 m=1
XP1 net1 B VDD VDD sg13_lv_pmos w=840.00n l=130.00n ng=1 ad=2.856e-13 as=2.856e-13 pd=2.36e-06 ps=2.36e-06 m=1
.ends
* End of subcircuit definition.

* Library name: sg13g2_stdcell
* Cell name: sg13g2_antennanp
* View name: schematic
.subckt sg13g2_antennanp A VDD VSS
Xdn_1 VSS A dantenna l=780n w=780n m=1
XD0 A VDD dpantenna l=1.34u w=1.05u m=1
.ends
* End of subcircuit definition.

* Library name: sg13g2_stdcell
* Cell name: sg13g2_buf_1
* View name: schematic
.subckt sg13g2_buf_1 X A VDD VSS
XN1 net1 A VSS VSS sg13_lv_nmos w=550.00n l=130.00n ng=1 ad=1.87e-13 as=1.87e-13 pd=1.78e-06 ps=1.78e-06 m=1
XN0 X net1 VSS VSS sg13_lv_nmos w=740.00n l=130.00n ng=1 ad=2.516e-13 as=2.516e-13 pd=2.16e-06 ps=2.16e-06 m=1
XP1 X net1 VDD VDD sg13_lv_pmos w=1.12u l=130.00n ng=1 ad=3.808e-13 as=3.808e-13 pd=2.92e-06 ps=2.92e-06 m=1
XP0 net1 A VDD VDD sg13_lv_pmos w=840.00n l=130.00n ng=1 ad=2.856e-13 as=2.856e-13 pd=2.36e-06 ps=2.36e-06 m=1
.ends
* End of subcircuit definition.

* Library name: sg13g2_stdcell
* Cell name: sg13g2_buf_16
* View name: schematic
.subckt sg13g2_buf_16 X A VDD VSS
XN1 net1 A VSS VSS sg13_lv_nmos w=4.44u l=130.00n ng=6 ad=8.436e-13 as=1.066e-12 pd=6.72e-06 ps=8.8e-06 m=1
XN0 X net1 VSS VSS sg13_lv_nmos w=11.84u l=130.00n ng=16 ad=2.25e-12 as=2.472e-12 pd=1.792e-05 ps=2e-05 m=1
XP1 X net1 VDD VDD sg13_lv_pmos w=17.92u l=130.00n ng=16 ad=3.405e-12 as=3.741e-12 pd=2.4e-05 ps=2.684e-05 m=1
XP0 net1 A VDD VDD sg13_lv_pmos w=6.72u l=130.00n ng=6 ad=1.277e-12 as=1.613e-12 pd=9e-06 ps=1.184e-05 m=1
.ends
* End of subcircuit definition.

* Library name: sg13g2_stdcell
* Cell name: sg13g2_buf_2
* View name: schematic
.subckt sg13g2_buf_2 X A VDD VSS
XN1 net1 A VSS VSS sg13_lv_nmos w=640.00n l=130.00n ng=1 ad=2.176e-13 as=2.176e-13 pd=1.96e-06 ps=1.96e-06 m=1
XN0 X net1 VSS VSS sg13_lv_nmos w=1.48u l=130.00n ng=2 ad=2.812e-13 as=5.032e-13 pd=2.24e-06 ps=4.32e-06 m=1
XP1 X net1 VDD VDD sg13_lv_pmos w=2.24u l=130.00n ng=2 ad=4.256e-13 as=7.616e-13 pd=3e-06 ps=5.84e-06 m=1
XP0 net1 A VDD VDD sg13_lv_pmos w=1.000u l=130.00n ng=1 ad=3.4e-13 as=3.4e-13 pd=2.68e-06 ps=2.68e-06 m=1
.ends
* End of subcircuit definition.

* Library name: sg13g2_stdcell
* Cell name: sg13g2_buf_4
* View name: schematic
.subckt sg13g2_buf_4 X A VDD VSS
XN1 net1 A VSS VSS sg13_lv_nmos w=740.00n l=130.00n ng=1 ad=2.516e-13 as=2.516e-13 pd=2.16e-06 ps=2.16e-06 m=1
XN0 X net1 VSS VSS sg13_lv_nmos w=2.96u l=130.00n ng=4 ad=5.624e-13 as=7.844e-13 pd=4.48e-06 ps=6.56e-06 m=1
XP1 X net1 VDD VDD sg13_lv_pmos w=4.48u l=130.00n ng=4 ad=8.512e-13 as=1.187e-12 pd=6e-06 ps=8.84e-06 m=1
XP0 net1 A VDD VDD sg13_lv_pmos w=1.68u l=130.00n ng=2 ad=3.192e-13 as=5.712e-13 pd=2.44e-06 ps=4.72e-06 m=1
.ends
* End of subcircuit definition.

* Library name: sg13g2_stdcell
* Cell name: sg13g2_buf_8
* View name: schematic
.subckt sg13g2_buf_8 X A VDD VSS
XN1 net1 A VSS VSS sg13_lv_nmos w=2.22u l=130.00n ng=3 ad=5.328e-13 as=5.328e-13 pd=4.4e-06 ps=4.4e-06 m=1
XN0 X net1 VSS VSS sg13_lv_nmos w=5.92u l=130.00n ng=8 ad=1.125e-12 as=1.347e-12 pd=8.96e-06 ps=1.104e-05 m=1
XP1 X net1 VDD VDD sg13_lv_pmos w=8.96u l=130.00n ng=8 ad=1.702e-12 as=2.038e-12 pd=1.2e-05 ps=1.484e-05 m=1
XP0 net1 A VDD VDD sg13_lv_pmos w=3.36u l=130.00n ng=3 ad=8.064e-13 as=8.064e-13 pd=5.92e-06 ps=5.92e-06 m=1
.ends
* End of subcircuit definition.

* Library name: sg13g2_stdcell
* Cell name: sg13g2_decap_4
* View name: schematic
.subckt sg13g2_decap_4 VDD VSS
XX1 VSS VDD VSS VSS sg13_lv_nmos w=420.00n l=1.000u ng=1 ad=1.428e-13 as=1.428e-13 pd=1.52e-06 ps=1.52e-06 m=1
XX0 VDD VSS VDD VDD sg13_lv_pmos w=1.000u l=1.000u ng=1 ad=3.4e-13 as=3.4e-13 pd=2.68e-06 ps=2.68e-06 m=1
.ends
* End of subcircuit definition.

* Library name: sg13g2_stdcell
* Cell name: sg13g2_decap_8
* View name: schematic
.subckt sg13g2_decap_8 VDD VSS
XX1 VSS VDD VSS VSS sg13_lv_nmos w=840.00n l=1.000u ng=2 ad=1.596e-13 as=2.856e-13 pd=1.6e-06 ps=3.04e-06 m=1
XX0 VDD VSS VDD VDD sg13_lv_pmos w=2.000u l=1.000u ng=2 ad=3.8e-13 as=6.8e-13 pd=2.76e-06 ps=5.36e-06 m=1
.ends
* End of subcircuit definition.

* Library name: sg13g2_stdcell
* Cell name: sg13g2_dfrbp_1
* View name: schematic
.subckt sg13g2_dfrbp_1 Q Q_N CLK D RESET_B VDD VSS
XN13 net12 net2 VSS VSS sg13_lv_nmos w=420.00n l=130.00n ng=1 ad=1.428e-13 as=1.428e-13 pd=1.52e-06 ps=1.52e-06 m=1
XN14 net5 clkneg net12 VSS sg13_lv_nmos w=420.00n l=130.00n ng=1 ad=1.428e-13 as=1.428e-13 pd=1.52e-06 ps=1.52e-06 m=1
XN15 net2 net5 net11 VSS sg13_lv_nmos w=420.00n l=130.00n ng=1 ad=1.428e-13 as=1.428e-13 pd=1.52e-06 ps=1.52e-06 m=1
XN16 net11 RESET_B VSS VSS sg13_lv_nmos w=420.00n l=130.00n ng=1 ad=1.428e-13 as=1.428e-13 pd=1.52e-06 ps=1.52e-06 m=1
XN6 Q_N net5 VSS VSS sg13_lv_nmos w=740.00n l=130.00n ng=1 ad=2.516e-13 as=2.516e-13 pd=2.16e-06 ps=2.16e-06 m=1
XN0 Db D net10 VSS sg13_lv_nmos w=420.00n l=130.00n ng=1 ad=1.428e-13 as=1.428e-13 pd=1.52e-06 ps=1.52e-06 m=1
XN1 net10 RESET_B VSS VSS sg13_lv_nmos w=420.00n l=130.00n ng=1 ad=1.428e-13 as=1.428e-13 pd=1.52e-06 ps=1.52e-06 m=1
XN7 Db clkneg net6 VSS sg13_lv_nmos w=420.00n l=130.00n ng=1 ad=1.428e-13 as=1.428e-13 pd=1.52e-06 ps=1.52e-06 m=1
XN8 net6 clkpos net9 VSS sg13_lv_nmos w=420.00n l=130.00n ng=1 ad=1.428e-13 as=1.428e-13 pd=1.52e-06 ps=1.52e-06 m=1
XN9 net9 net4 net8 VSS sg13_lv_nmos w=420.00n l=130.00n ng=1 ad=1.428e-13 as=1.428e-13 pd=1.52e-06 ps=1.52e-06 m=1
XN10 net8 RESET_B VSS VSS sg13_lv_nmos w=420.00n l=130.00n ng=1 ad=1.428e-13 as=1.428e-13 pd=1.52e-06 ps=1.52e-06 m=1
XN11 net4 net6 VSS VSS sg13_lv_nmos w=740.00n l=130.00n ng=1 ad=2.516e-13 as=2.516e-13 pd=2.16e-06 ps=2.16e-06 m=1
XN2 clkneg CLK VSS VSS sg13_lv_nmos w=740.00n l=130.00n ng=1 ad=2.516e-13 as=2.516e-13 pd=2.16e-06 ps=2.16e-06 m=1
XN12 net4 clkpos net5 VSS sg13_lv_nmos w=740.00n l=130.00n ng=1 ad=2.516e-13 as=2.516e-13 pd=2.16e-06 ps=2.16e-06 m=1
XN3 clkpos clkneg VSS VSS sg13_lv_nmos w=740.00n l=130.00n ng=1 ad=2.516e-13 as=2.516e-13 pd=2.16e-06 ps=2.16e-06 m=1
XN4 Q net1 VSS VSS sg13_lv_nmos w=740.00n l=130.00n ng=1 ad=2.516e-13 as=2.516e-13 pd=2.16e-06 ps=2.16e-06 m=1
XN5 net1 net5 VSS VSS sg13_lv_nmos w=740.00n l=130.00n ng=1 ad=2.516e-13 as=2.516e-13 pd=2.16e-06 ps=2.16e-06 m=1
XP14 net5 clkpos net3 VDD sg13_lv_pmos w=420.00n l=130.00n ng=1 ad=1.428e-13 as=1.428e-13 pd=1.52e-06 ps=1.52e-06 m=1
XP15 net2 net5 VDD VDD sg13_lv_pmos w=420.00n l=130.00n ng=1 ad=1.428e-13 as=1.428e-13 pd=1.52e-06 ps=1.52e-06 m=1
XP16 net2 RESET_B VDD VDD sg13_lv_pmos w=420.00n l=130.00n ng=1 ad=1.428e-13 as=1.428e-13 pd=1.52e-06 ps=1.52e-06 m=1
XP6 Q_N net5 VDD VDD sg13_lv_pmos w=1.12u l=130.00n ng=1 ad=3.808e-13 as=3.808e-13 pd=2.92e-06 ps=2.92e-06 m=1
XP7 Db clkpos net6 VDD sg13_lv_pmos w=420.00n l=130.00n ng=1 ad=1.428e-13 as=1.428e-13 pd=1.52e-06 ps=1.52e-06 m=1
XP0 Db RESET_B VDD VDD sg13_lv_pmos w=420.00n l=130.00n ng=1 ad=1.428e-13 as=1.428e-13 pd=1.52e-06 ps=1.52e-06 m=1
XP1 Db D VDD VDD sg13_lv_pmos w=420.00n l=130.00n ng=1 ad=1.428e-13 as=1.428e-13 pd=1.52e-06 ps=1.52e-06 m=1
XP8 net7 net4 VDD VDD sg13_lv_pmos w=420.00n l=130.00n ng=1 ad=1.428e-13 as=1.428e-13 pd=1.52e-06 ps=1.52e-06 m=1
XP9 net6 clkneg net7 VDD sg13_lv_pmos w=420.00n l=130.00n ng=1 ad=1.428e-13 as=1.428e-13 pd=1.52e-06 ps=1.52e-06 m=1
XP10 net6 RESET_B VDD VDD sg13_lv_pmos w=420.00n l=130.00n ng=1 ad=1.428e-13 as=1.428e-13 pd=1.52e-06 ps=1.52e-06 m=1
XP2 clkneg CLK VDD VDD sg13_lv_pmos w=1.12u l=130.00n ng=1 ad=3.808e-13 as=3.808e-13 pd=2.92e-06 ps=2.92e-06 m=1
XP3 clkpos clkneg VDD VDD sg13_lv_pmos w=1.12u l=130.00n ng=1 ad=3.808e-13 as=3.808e-13 pd=2.92e-06 ps=2.92e-06 m=1
XP11 net4 net6 VDD VDD sg13_lv_pmos w=1.000u l=130.00n ng=1 ad=3.4e-13 as=3.4e-13 pd=2.68e-06 ps=2.68e-06 m=1
XP12 net4 clkneg net5 VDD sg13_lv_pmos w=1.000u l=130.00n ng=1 ad=3.4e-13 as=3.4e-13 pd=2.68e-06 ps=2.68e-06 m=1
XP4 Q net1 VDD VDD sg13_lv_pmos w=1.12u l=130.00n ng=1 ad=3.808e-13 as=3.808e-13 pd=2.92e-06 ps=2.92e-06 m=1
XP13 net3 net2 VDD VDD sg13_lv_pmos w=420.00n l=130.00n ng=1 ad=1.428e-13 as=1.428e-13 pd=1.52e-06 ps=1.52e-06 m=1
XP5 net1 net5 VDD VDD sg13_lv_pmos w=1.12u l=130.00n ng=1 ad=3.808e-13 as=3.808e-13 pd=2.92e-06 ps=2.92e-06 m=1
.ends
* End of subcircuit definition.

* Library name: sg13g2_stdcell
* Cell name: sg13g2_dfrbp_2
* View name: schematic
.subckt sg13g2_dfrbp_2 Q Q_N CLK D RESET_B VDD VSS
XN13 net12 net2 VSS VSS sg13_lv_nmos w=420.00n l=130.00n ng=1 ad=1.428e-13 as=1.428e-13 pd=1.52e-06 ps=1.52e-06 m=1
XN14 net5 clkneg net12 VSS sg13_lv_nmos w=420.00n l=130.00n ng=1 ad=1.428e-13 as=1.428e-13 pd=1.52e-06 ps=1.52e-06 m=1
XN15 net2 net5 net11 VSS sg13_lv_nmos w=420.00n l=130.00n ng=1 ad=1.428e-13 as=1.428e-13 pd=1.52e-06 ps=1.52e-06 m=1
XN16 net11 RESET_B VSS VSS sg13_lv_nmos w=420.00n l=130.00n ng=1 ad=1.428e-13 as=1.428e-13 pd=1.52e-06 ps=1.52e-06 m=1
XN6 Q_N net5 VSS VSS sg13_lv_nmos w=1.48u l=130.00n ng=2 ad=2.812e-13 as=5.032e-13 pd=2.24e-06 ps=4.32e-06 m=1
XN0 Db D net10 VSS sg13_lv_nmos w=420.00n l=130.00n ng=1 ad=1.428e-13 as=1.428e-13 pd=1.52e-06 ps=1.52e-06 m=1
XN1 net10 RESET_B VSS VSS sg13_lv_nmos w=420.00n l=130.00n ng=1 ad=1.428e-13 as=1.428e-13 pd=1.52e-06 ps=1.52e-06 m=1
XN7 Db clkneg net6 VSS sg13_lv_nmos w=420.00n l=130.00n ng=1 ad=1.428e-13 as=1.428e-13 pd=1.52e-06 ps=1.52e-06 m=1
XN8 net6 clkpos net9 VSS sg13_lv_nmos w=420.00n l=130.00n ng=1 ad=1.428e-13 as=1.428e-13 pd=1.52e-06 ps=1.52e-06 m=1
XN9 net9 net4 net8 VSS sg13_lv_nmos w=420.00n l=130.00n ng=1 ad=1.428e-13 as=1.428e-13 pd=1.52e-06 ps=1.52e-06 m=1
XN10 net8 RESET_B VSS VSS sg13_lv_nmos w=420.00n l=130.00n ng=1 ad=1.428e-13 as=1.428e-13 pd=1.52e-06 ps=1.52e-06 m=1
XN11 net4 net6 VSS VSS sg13_lv_nmos w=740.00n l=130.00n ng=1 ad=2.516e-13 as=2.516e-13 pd=2.16e-06 ps=2.16e-06 m=1
XN2 clkneg CLK VSS VSS sg13_lv_nmos w=740.00n l=130.00n ng=1 ad=2.516e-13 as=2.516e-13 pd=2.16e-06 ps=2.16e-06 m=1
XN12 net4 clkpos net5 VSS sg13_lv_nmos w=740.00n l=130.00n ng=1 ad=2.516e-13 as=2.516e-13 pd=2.16e-06 ps=2.16e-06 m=1
XN3 clkpos clkneg VSS VSS sg13_lv_nmos w=740.00n l=130.00n ng=1 ad=2.516e-13 as=2.516e-13 pd=2.16e-06 ps=2.16e-06 m=1
XN4 Q net1 VSS VSS sg13_lv_nmos w=1.48u l=130.00n ng=2 ad=2.812e-13 as=5.032e-13 pd=2.24e-06 ps=4.32e-06 m=1
XN5 net1 net5 VSS VSS sg13_lv_nmos w=640.00n l=130.00n ng=1 ad=2.176e-13 as=2.176e-13 pd=1.96e-06 ps=1.96e-06 m=1
XP14 net5 clkpos net3 VDD sg13_lv_pmos w=420.00n l=130.00n ng=1 ad=1.428e-13 as=1.428e-13 pd=1.52e-06 ps=1.52e-06 m=1
XP15 net2 net5 VDD VDD sg13_lv_pmos w=420.00n l=130.00n ng=1 ad=1.428e-13 as=1.428e-13 pd=1.52e-06 ps=1.52e-06 m=1
XP16 net2 RESET_B VDD VDD sg13_lv_pmos w=420.00n l=130.00n ng=1 ad=1.428e-13 as=1.428e-13 pd=1.52e-06 ps=1.52e-06 m=1
XP6 Q_N net5 VDD VDD sg13_lv_pmos w=2.24u l=130.00n ng=2 ad=4.256e-13 as=7.616e-13 pd=3e-06 ps=5.84e-06 m=1
XP7 Db clkpos net6 VDD sg13_lv_pmos w=420.00n l=130.00n ng=1 ad=1.428e-13 as=1.428e-13 pd=1.52e-06 ps=1.52e-06 m=1
XP0 Db RESET_B VDD VDD sg13_lv_pmos w=420.00n l=130.00n ng=1 ad=1.428e-13 as=1.428e-13 pd=1.52e-06 ps=1.52e-06 m=1
XP1 Db D VDD VDD sg13_lv_pmos w=420.00n l=130.00n ng=1 ad=1.428e-13 as=1.428e-13 pd=1.52e-06 ps=1.52e-06 m=1
XP8 net7 net4 VDD VDD sg13_lv_pmos w=420.00n l=130.00n ng=1 ad=1.428e-13 as=1.428e-13 pd=1.52e-06 ps=1.52e-06 m=1
XP9 net6 clkneg net7 VDD sg13_lv_pmos w=420.00n l=130.00n ng=1 ad=1.428e-13 as=1.428e-13 pd=1.52e-06 ps=1.52e-06 m=1
XP10 net6 RESET_B VDD VDD sg13_lv_pmos w=420.00n l=130.00n ng=1 ad=1.428e-13 as=1.428e-13 pd=1.52e-06 ps=1.52e-06 m=1
XP2 clkneg CLK VDD VDD sg13_lv_pmos w=1.12u l=130.00n ng=1 ad=3.808e-13 as=3.808e-13 pd=2.92e-06 ps=2.92e-06 m=1
XP3 clkpos clkneg VDD VDD sg13_lv_pmos w=1.12u l=130.00n ng=1 ad=3.808e-13 as=3.808e-13 pd=2.92e-06 ps=2.92e-06 m=1
XP11 net4 net6 VDD VDD sg13_lv_pmos w=1.000u l=130.00n ng=1 ad=3.4e-13 as=3.4e-13 pd=2.68e-06 ps=2.68e-06 m=1
XP12 net4 clkneg net5 VDD sg13_lv_pmos w=1.000u l=130.00n ng=1 ad=3.4e-13 as=3.4e-13 pd=2.68e-06 ps=2.68e-06 m=1
XP4 Q net1 VDD VDD sg13_lv_pmos w=2.24u l=130.00n ng=2 ad=4.256e-13 as=7.616e-13 pd=3e-06 ps=5.84e-06 m=1
XP13 net3 net2 VDD VDD sg13_lv_pmos w=420.00n l=130.00n ng=1 ad=1.428e-13 as=1.428e-13 pd=1.52e-06 ps=1.52e-06 m=1
XP5 net1 net5 VDD VDD sg13_lv_pmos w=1.000u l=130.00n ng=1 ad=3.4e-13 as=3.4e-13 pd=2.68e-06 ps=2.68e-06 m=1
.ends
* End of subcircuit definition.

* Library name: sg13g2_stdcell
* Cell name: sg13g2_dlhq_1
* View name: schematic
.subckt sg13g2_dlhq_1 Q D GATE VDD VSS
XX17 Q qint_b VDD VDD sg13_lv_pmos w=1.12u l=130.00n ng=1 ad=3.808e-13 as=3.808e-13 pd=2.92e-06 ps=2.92e-06 m=1
XX16 qint GATE_BB net8 VDD sg13_lv_pmos w=420.00n l=130.00n ng=1 ad=1.428e-13 as=1.428e-13 pd=1.52e-06 ps=1.52e-06 m=1
XX14 qint_b qint VDD VDD sg13_lv_pmos w=1.12u l=130.00n ng=1 ad=3.808e-13 as=3.808e-13 pd=2.92e-06 ps=2.92e-06 m=1
XX12 Db D VDD VDD sg13_lv_pmos w=840.00n l=130.00n ng=1 ad=2.856e-13 as=2.856e-13 pd=2.36e-06 ps=2.36e-06 m=1
XX9 GATE_B GATE VDD VDD sg13_lv_pmos w=840.00n l=130.00n ng=1 ad=2.856e-13 as=2.856e-13 pd=2.36e-06 ps=2.36e-06 m=1
XX7 GATE_BB GATE_B VDD VDD sg13_lv_pmos w=840.00n l=130.00n ng=1 ad=2.856e-13 as=2.856e-13 pd=2.36e-06 ps=2.36e-06 m=1
XX4 net8 qint_b VDD VDD sg13_lv_pmos w=420.00n l=130.00n ng=1 ad=1.428e-13 as=1.428e-13 pd=1.52e-06 ps=1.52e-06 m=1
XX3 net4 GATE_B qint VDD sg13_lv_pmos w=1.000u l=130.00n ng=1 ad=3.4e-13 as=3.4e-13 pd=2.68e-06 ps=2.68e-06 m=1
XX1 net4 Db VDD VDD sg13_lv_pmos w=1.000u l=130.00n ng=1 ad=3.4e-13 as=3.4e-13 pd=2.68e-06 ps=2.68e-06 m=1
XX15 GATE_B GATE VSS VSS sg13_lv_nmos w=740.00n l=130.00n ng=1 ad=2.516e-13 as=2.516e-13 pd=2.16e-06 ps=2.16e-06 m=1
XX13 GATE_BB GATE_B VSS VSS sg13_lv_nmos w=740.00n l=130.00n ng=1 ad=2.516e-13 as=2.516e-13 pd=2.16e-06 ps=2.16e-06 m=1
XX11 qint GATE_B net9 VSS sg13_lv_nmos w=420.00n l=130.00n ng=1 ad=1.428e-13 as=1.428e-13 pd=1.52e-06 ps=1.52e-06 m=1
XX10 Q qint_b VSS VSS sg13_lv_nmos w=740.00n l=130.00n ng=1 ad=2.516e-13 as=2.516e-13 pd=2.16e-06 ps=2.16e-06 m=1
XX8 net7 Db VSS VSS sg13_lv_nmos w=740.00n l=130.00n ng=1 ad=2.516e-13 as=2.516e-13 pd=2.16e-06 ps=2.16e-06 m=1
XX6 net9 qint_b VSS VSS sg13_lv_nmos w=420.00n l=130.00n ng=1 ad=1.428e-13 as=1.428e-13 pd=1.52e-06 ps=1.52e-06 m=1
XX5 qint_b qint VSS VSS sg13_lv_nmos w=740.00n l=130.00n ng=1 ad=2.516e-13 as=2.516e-13 pd=2.16e-06 ps=2.16e-06 m=1
XX2 qint GATE_BB net7 VSS sg13_lv_nmos w=740.00n l=130.00n ng=1 ad=2.516e-13 as=2.516e-13 pd=2.16e-06 ps=2.16e-06 m=1
XX0 Db D VSS VSS sg13_lv_nmos w=550.00n l=130.00n ng=1 ad=1.87e-13 as=1.87e-13 pd=1.78e-06 ps=1.78e-06 m=1
.ends
* End of subcircuit definition.

* Library name: sg13g2_stdcell
* Cell name: sg13g2_dlhr_1
* View name: schematic
.subckt sg13g2_dlhr_1 Q Q_N D GATE RESET_B VDD VSS
XX0 qint_b RESET_B VDD VDD sg13_lv_pmos w=1.12u l=130.00n ng=1 ad=3.808e-13 as=3.808e-13 pd=2.92e-06 ps=2.92e-06 m=1
XX9 Q qint_b VDD VDD sg13_lv_pmos w=1.12u l=130.00n ng=1 ad=3.808e-13 as=3.808e-13 pd=2.92e-06 ps=2.92e-06 m=1
XX15 qint GATE_BB net11 VDD sg13_lv_pmos w=420.00n l=130.00n ng=1 ad=1.428e-13 as=1.428e-13 pd=1.52e-06 ps=1.52e-06 m=1
XX6 net11 qint_b VDD VDD sg13_lv_pmos w=420.00n l=130.00n ng=1 ad=1.428e-13 as=1.428e-13 pd=1.52e-06 ps=1.52e-06 m=1
XX10 qint GATE_B net2 VDD sg13_lv_pmos w=1.000u l=130.00n ng=1 ad=3.4e-13 as=3.4e-13 pd=2.68e-06 ps=2.68e-06 m=1
XX18 net2 Db VDD VDD sg13_lv_pmos w=1.000u l=130.00n ng=1 ad=3.4e-13 as=3.4e-13 pd=2.68e-06 ps=2.68e-06 m=1
XX13 Db D VDD VDD sg13_lv_pmos w=840.00n l=130.00n ng=1 ad=2.856e-13 as=2.856e-13 pd=2.36e-06 ps=2.36e-06 m=1
XX5 GATE_B GATE VDD VDD sg13_lv_pmos w=840.00n l=130.00n ng=1 ad=2.856e-13 as=2.856e-13 pd=2.36e-06 ps=2.36e-06 m=1
XX3 Q_N qintn_b VDD VDD sg13_lv_pmos w=1.12u l=130.00n ng=1 ad=3.808e-13 as=3.808e-13 pd=2.92e-06 ps=2.92e-06 m=1
XX1 qint_b qint VDD VDD sg13_lv_pmos w=1.12u l=130.00n ng=1 ad=3.808e-13 as=3.808e-13 pd=2.92e-06 ps=2.92e-06 m=1
XX20 GATE_BB GATE_B VDD VDD sg13_lv_pmos w=840.00n l=130.00n ng=1 ad=2.856e-13 as=2.856e-13 pd=2.36e-06 ps=2.36e-06 m=1
XX2 qintn_b qint_b VDD VDD sg13_lv_pmos w=840.00n l=130.00n ng=1 ad=2.856e-13 as=2.856e-13 pd=2.36e-06 ps=2.36e-06 m=1
XX12 qint_b qint net9 VSS sg13_lv_nmos w=740.00n l=130.00n ng=1 ad=2.516e-13 as=2.516e-13 pd=2.16e-06 ps=2.16e-06 m=1
XX21 net9 RESET_B VSS VSS sg13_lv_nmos w=740.00n l=130.00n ng=1 ad=2.516e-13 as=2.516e-13 pd=2.16e-06 ps=2.16e-06 m=1
XX11 qint GATE_B net7 VSS sg13_lv_nmos w=420.00n l=130.00n ng=1 ad=1.428e-13 as=1.428e-13 pd=1.52e-06 ps=1.52e-06 m=1
XX14 net7 qint_b VSS VSS sg13_lv_nmos w=420.00n l=130.00n ng=1 ad=1.428e-13 as=1.428e-13 pd=1.52e-06 ps=1.52e-06 m=1
XX7 Q qint_b VSS VSS sg13_lv_nmos w=740.00n l=130.00n ng=1 ad=2.516e-13 as=2.516e-13 pd=2.16e-06 ps=2.16e-06 m=1
XX16 qint GATE_BB net1 VSS sg13_lv_nmos w=640.00n l=130.00n ng=1 ad=2.176e-13 as=2.176e-13 pd=1.96e-06 ps=1.96e-06 m=1
XX23 net1 Db VSS VSS sg13_lv_nmos w=640.00n l=130.00n ng=1 ad=2.176e-13 as=2.176e-13 pd=1.96e-06 ps=1.96e-06 m=1
XX4 Db D VSS VSS sg13_lv_nmos w=550.00n l=130.00n ng=1 ad=1.87e-13 as=1.87e-13 pd=1.78e-06 ps=1.78e-06 m=1
XX19 GATE_B GATE VSS VSS sg13_lv_nmos w=740.00n l=130.00n ng=1 ad=2.516e-13 as=2.516e-13 pd=2.16e-06 ps=2.16e-06 m=1
XX8 Q_N qintn_b VSS VSS sg13_lv_nmos w=740.00n l=130.00n ng=1 ad=2.516e-13 as=2.516e-13 pd=2.16e-06 ps=2.16e-06 m=1
XX17 GATE_BB GATE_B VSS VSS sg13_lv_nmos w=740.00n l=130.00n ng=1 ad=2.516e-13 as=2.516e-13 pd=2.16e-06 ps=2.16e-06 m=1
XX22 qintn_b qint_b VSS VSS sg13_lv_nmos w=550.00n l=130.00n ng=1 ad=1.87e-13 as=1.87e-13 pd=1.78e-06 ps=1.78e-06 m=1
.ends
* End of subcircuit definition.

* Library name: sg13g2_stdcell
* Cell name: sg13g2_dlhrq_1
* View name: schematic
.subckt sg13g2_dlhrq_1 Q D GATE RESET_B VDD VSS
XX21 net116 RESET_B VSS VSS sg13_lv_nmos w=740.00n l=130.00n ng=1 ad=2.516e-13 as=2.516e-13 pd=2.16e-06 ps=2.16e-06 m=1
XX7 Q qint_b VSS VSS sg13_lv_nmos w=740.00n l=130.00n ng=1 ad=2.516e-13 as=2.516e-13 pd=2.16e-06 ps=2.16e-06 m=1
XX17 GATE_BB GATE_B VSS VSS sg13_lv_nmos w=740.00n l=130.00n ng=1 ad=2.516e-13 as=2.516e-13 pd=2.16e-06 ps=2.16e-06 m=1
XX11 qint GATE_B net89 VSS sg13_lv_nmos w=420.00n l=130.00n ng=1 ad=1.428e-13 as=1.428e-13 pd=1.52e-06 ps=1.52e-06 m=1
XX12 qint_b qint net116 VSS sg13_lv_nmos w=740.00n l=130.00n ng=1 ad=2.516e-13 as=2.516e-13 pd=2.16e-06 ps=2.16e-06 m=1