* Copyright 2023 IHP PDK Authors
* 
* Licensed under the Apache License, Version 2.0 (the "License");
* you may not use this file except in compliance with the License.
* You may obtain a copy of the License at
* 
*    https://www.apache.org/licenses/LICENSE-2.0
* 
* Unless required by applicable law or agreed to in writing, software
* distributed under the License is distributed on an "AS IS" BASIS,
* WITHOUT WARRANTIES OR CONDITIONS OF ANY KIND, either express or implied.
* See the License for the specific language governing permissions and
* limitations under the License.

* Library name: sg13g2_stdcell
* Cell name: sg13g2_and2_1
* View name: schematic
.subckt sg13g2_and2_1 A B VDD VSS X
XX0 a_56_136_ A a_143_136_ VSS sg13_lv_nmos w=640.00n l=130.00n ng=1 ad=0 as=0 pd=0 ps=0 m=1
XX2 VSS a_56_136_ X VSS sg13_lv_nmos w=740.00n l=130.00n ng=1 ad=0 as=0 pd=0 ps=0 m=1
XX3 a_143_136_ B VSS VSS sg13_lv_nmos w=640.00n l=130.00n ng=1 ad=0 as=0 pd=0 ps=0 m=1
XX1 a_56_136_ B VDD VDD sg13_lv_pmos w=840.00n l=130.00n ng=1 ad=0 as=0 pd=0 ps=0 m=1
XX4 VDD a_56_136_ X VDD sg13_lv_pmos w=1.12e-06 l=130.00n ng=1 ad=0 as=0 pd=0 ps=0 m=1
XX5 VDD A a_56_136_ VDD sg13_lv_pmos w=840.00n l=130.00n ng=1 ad=0 as=0 pd=0 ps=0 m=1
.ends
* End of subcircuit definition.

* Library name: sg13g2_stdcell
* Cell name: sg13g2_and3_1
* View name: schematic
.subckt sg13g2_and3_1 A B C VDD VSS X
XX0 a_233_136_ C VSS VSS sg13_lv_nmos w=640.00n l=130.00n ng=1 ad=0 as=0 pd=0 ps=0 m=1
XX2 VSS a_27_398_ X VSS sg13_lv_nmos w=740.00n l=130.00n ng=1 ad=0 as=0 pd=0 ps=0 m=1
XX5 a_27_398_ A a_121_136_ VSS sg13_lv_nmos w=640.00n l=130.00n ng=1 ad=0 as=0 pd=0 ps=0 m=1
XX6 a_121_136_ B a_233_136_ VSS sg13_lv_nmos w=640.00n l=130.00n ng=1 ad=0 as=0 pd=0 ps=0 m=1
XX1 VDD B a_27_398_ VDD sg13_lv_pmos w=840.00n l=130.00n ng=1 ad=0 as=0 pd=0 ps=0 m=1
XX3 VDD a_27_398_ X VDD sg13_lv_pmos w=1.12e-06 l=130.00n ng=1 ad=0 as=0 pd=0 ps=0 m=1
XX4 a_27_398_ A VDD VDD sg13_lv_pmos w=840.00n l=130.00n ng=1 ad=0 as=0 pd=0 ps=0 m=1
XX7 a_27_398_ C VDD VDD sg13_lv_pmos w=840.00n l=130.00n ng=1 ad=0 as=0 pd=0 ps=0 m=1
.ends
* End of subcircuit definition.

* Library name: sg13g2_stdcell
* Cell name: sg13g2_and4_1
* View name: schematic
.subckt sg13g2_and4_1 A B C D VDD VSS X
XX0 a_96_74_ A a_179_74_ VSS sg13_lv_nmos w=640.00n l=130.00n ng=1 ad=0 as=0 pd=0 ps=0 m=1
XX2 a_257_74_ C a_335_74_ VSS sg13_lv_nmos w=640.00n l=130.00n ng=1 ad=0 as=0 pd=0 ps=0 m=1
XX4 VSS a_96_74_ X VSS sg13_lv_nmos w=740.00n l=130.00n ng=1 ad=0 as=0 pd=0 ps=0 m=1
XX7 a_335_74_ D VSS VSS sg13_lv_nmos w=640.00n l=130.00n ng=1 ad=0 as=0 pd=0 ps=0 m=1
XX8 a_179_74_ B a_257_74_ VSS sg13_lv_nmos w=640.00n l=130.00n ng=1 ad=0 as=0 pd=0 ps=0 m=1
XX1 VDD a_96_74_ X VDD sg13_lv_pmos w=1.12e-06 l=130.00n ng=1 ad=0 as=0 pd=0 ps=0 m=1
XX3 VDD A a_96_74_ VDD sg13_lv_pmos w=840.00n l=130.00n ng=1 ad=0 as=0 pd=0 ps=0 m=1
XX5 VDD C a_96_74_ VDD sg13_lv_pmos w=840.00n l=130.00n ng=1 ad=0 as=0 pd=0 ps=0 m=1
XX6 a_96_74_ B VDD VDD sg13_lv_pmos w=840.00n l=130.00n ng=1 ad=0 as=0 pd=0 ps=0 m=1
XX9 a_96_74_ D VDD VDD sg13_lv_pmos w=840.00n l=130.00n ng=1 ad=0 as=0 pd=0 ps=0 m=1
.ends
* End of subcircuit definition.

* Library name: sg13g2_stdcell
* Cell name: sg13g2_buf_1
* View name: schematic
.subckt sg13g2_buf_1 A VDD VSS X
XN1 net1 A VSS VSS sg13_lv_nmos w=550.00n l=130.00n ng=1 ad=1.87e-13 as=1.87e-13 pd=1.78e-06 ps=1.78e-06 m=1
XN0 X net1 VSS VSS sg13_lv_nmos w=740.00n l=130.00n ng=1 ad=2.516e-13 as=2.516e-13 pd=2.16e-06 ps=2.16e-06 m=1
XP1 X net1 VDD VDD sg13_lv_pmos w=1.12u l=130.00n ng=1 ad=3.808e-13 as=3.808e-13 pd=2.92e-06 ps=2.92e-06 m=1
XP0 net1 A VDD VDD sg13_lv_pmos w=840.00n l=130.00n ng=1 ad=2.856e-13 as=2.856e-13 pd=2.36e-06 ps=2.36e-06 m=1
.ends
* End of subcircuit definition.

* Library name: sg13g2_stdcell
* Cell name: sg13g2_buf_16
* View name: schematic
.subckt sg13g2_buf_16 A VDD VSS X
XN1 net1 A VSS VSS sg13_lv_nmos w=4.44u l=130.00n ng=6 ad=8.436e-13 as=1.066e-12 pd=6.72e-06 ps=8.8e-06 m=1
XN0 X net1 VSS VSS sg13_lv_nmos w=11.84u l=130.00n ng=16 ad=0 as=0 pd=0 ps=0 m=1
XP1 X net1 VDD VDD sg13_lv_pmos w=17.92u l=130.00n ng=16 ad=3.405e-12 as=3.741e-12 pd=2.4e-05 ps=2.684e-05 m=1
XP0 net1 A VDD VDD sg13_lv_pmos w=6.72u l=130.00n ng=6 ad=1.277e-12 as=1.613e-12 pd=9e-06 ps=1.184e-05 m=1
.ends
* End of subcircuit definition.

* Library name: sg13g2_stdcell
* Cell name: sg13g2_buf_2
* View name: schematic
.subckt sg13g2_buf_2 A VDD VSS X
XN1 net1 A VSS VSS sg13_lv_nmos w=640.00n l=130.00n ng=1 ad=2.176e-13 as=2.176e-13 pd=1.96e-06 ps=1.96e-06 m=1
XN0 X net1 VSS VSS sg13_lv_nmos w=1.48u l=130.00n ng=2 ad=2.812e-13 as=5.032e-13 pd=2.24e-06 ps=4.32e-06 m=1
XP1 X net1 VDD VDD sg13_lv_pmos w=2.24u l=130.00n ng=2 ad=4.256e-13 as=7.616e-13 pd=3e-06 ps=5.84e-06 m=1
XP0 net1 A VDD VDD sg13_lv_pmos w=1.000u l=130.00n ng=1 ad=3.4e-13 as=3.4e-13 pd=2.68e-06 ps=2.68e-06 m=1
.ends
* End of subcircuit definition.

* Library name: sg13g2_stdcell
* Cell name: sg13g2_buf_4
* View name: schematic
.subckt sg13g2_buf_4 A VDD VSS X
XN1 net1 A VSS VSS sg13_lv_nmos w=740.00n l=130.00n ng=1 ad=2.516e-13 as=2.516e-13 pd=2.16e-06 ps=2.16e-06 m=1
XN0 X net1 VSS VSS sg13_lv_nmos w=2.96u l=130.00n ng=4 ad=5.624e-13 as=7.844e-13 pd=4.48e-06 ps=6.56e-06 m=1
XP1 X net1 VDD VDD sg13_lv_pmos w=4.48u l=130.00n ng=4 ad=8.512e-13 as=1.187e-12 pd=6e-06 ps=8.84e-06 m=1
XP0 net1 A VDD VDD sg13_lv_pmos w=1.68u l=130.00n ng=2 ad=3.192e-13 as=5.712e-13 pd=2.44e-06 ps=4.72e-06 m=1
.ends
* End of subcircuit definition.

* Library name: sg13g2_stdcell
* Cell name: sg13g2_buf_8
* View name: schematic
.subckt sg13g2_buf_8 A VDD VSS X
XN1 net1 A VSS VSS sg13_lv_nmos w=2.22u l=130.00n ng=3 ad=5.328e-13 as=5.328e-13 pd=4.4e-06 ps=4.4e-06 m=1
XN0 X net1 VSS VSS sg13_lv_nmos w=5.92u l=130.00n ng=8 ad=1.125e-12 as=1.347e-12 pd=8.96e-06 ps=1.104e-05 m=1
XP1 X net1 VDD VDD sg13_lv_pmos w=8.96u l=130.00n ng=8 ad=1.702e-12 as=2.038e-12 pd=1.2e-05 ps=1.484e-05 m=1
XP0 net1 A VDD VDD sg13_lv_pmos w=3.36u l=130.00n ng=3 ad=8.064e-13 as=8.064e-13 pd=5.92e-06 ps=5.92e-06 m=1
.ends
* End of subcircuit definition.

* Library name: sg13g2_stdcell
* Cell name: sg13g2_dfrbp_2
* View name: schematic
.subckt sg13g2_dfrbp_2 CLK D Q Q_N RESET_B VDD VSS
XX28 VDD D a_70_74_ VDD sg13_lv_pmos w=420.00n l=130.00n ng=1 ad=0 as=0 pd=0 ps=0 m=1
XX15 a_1755_389_ a_1800_291_ VDD VDD sg13_lv_pmos w=420.00n l=130.00n ng=1 ad=0 as=0 pd=0 ps=0 m=1
XX20 a_1586_149_ a_818_418_ a_1755_389_ VDD sg13_lv_pmos w=420.00n l=130.00n ng=1 ad=0 as=0 pd=0 ps=0 m=1
XX19 VDD a_331_392_ a_683_485_ VDD sg13_lv_pmos w=420.00n l=130.00n ng=1 ad=0 as=0 pd=0 ps=0 m=1
XX37 a_683_485_ a_728_331_ a_298_294_ VDD sg13_lv_pmos w=420.00n l=130.00n ng=1 ad=0 as=0 pd=0 ps=0 m=1
XX23 VDD CLK a_728_331_ VDD sg13_lv_pmos w=1.12e-06 l=130.00n ng=1 ad=0 as=0 pd=0 ps=0 m=1
XX3 a_1800_291_ a_1586_149_ VDD VDD sg13_lv_pmos w=420.00n l=130.00n ng=1 ad=0 as=0 pd=0 ps=0 m=1
XX35 VDD RESET_B a_1800_291_ VDD sg13_lv_pmos w=420.00n l=130.00n ng=1 ad=0 as=0 pd=0 ps=0 m=1
XX5 a_818_418_ a_728_331_ VDD VDD sg13_lv_pmos w=1.12e-06 l=130.00n ng=1 ad=0 as=0 pd=0 ps=0 m=1
XX22 a_298_294_ a_818_418_ a_70_74_ VDD sg13_lv_pmos w=420.00n l=130.00n ng=1 ad=0 as=0 pd=0 ps=0 m=1
XX33 a_331_392_ a_728_331_ a_1586_149_ VDD sg13_lv_pmos w=1.000u l=130.00n ng=1 ad=0 as=0 pd=0 ps=0 m=1
XX32 VDD a_298_294_ a_331_392_ VDD sg13_lv_pmos w=1.000u l=130.00n ng=1 ad=0 as=0 pd=0 ps=0 m=1
XX4 a_298_294_ RESET_B VDD VDD sg13_lv_pmos w=420.00n l=130.00n ng=1 ad=0 as=0 pd=0 ps=0 m=1
XX27 a_70_74_ RESET_B VDD VDD sg13_lv_pmos w=420.00n l=130.00n ng=1 ad=0 as=0 pd=0 ps=0 m=1
XX31 Q_N a_1586_149_ VDD VDD sg13_lv_pmos w=1.12e-06 l=130.00n ng=1 ad=0 as=0 pd=0 ps=0 m=1
XX13 VDD a_1586_149_ Q_N VDD sg13_lv_pmos w=1.12e-06 l=130.00n ng=1 ad=0 as=0 pd=0 ps=0 m=1
XX24 VDD a_1586_149_ a_2363_352_ VDD sg13_lv_pmos w=1.000u l=130.00n ng=1 ad=0 as=0 pd=0 ps=0 m=1
XX25 Q a_2363_352_ VDD VDD sg13_lv_pmos w=1.12e-06 l=130.00n ng=1 ad=0 as=0 pd=0 ps=0 m=1
XX6 VDD a_2363_352_ Q VDD sg13_lv_pmos w=1.12e-06 l=130.00n ng=1 ad=0 as=0 pd=0 ps=0 m=1
XX30 VSS RESET_B a_536_81_ VSS sg13_lv_nmos w=420.00n l=130.00n ng=1 ad=0 as=0 pd=0 ps=0 m=1
XX34 a_536_81_ a_331_392_ a_614_81_ VSS sg13_lv_nmos w=420.00n l=130.00n ng=1 ad=0 as=0 pd=0 ps=0 m=1
XX29 a_298_294_ a_818_418_ a_614_81_ VSS sg13_lv_nmos w=420.00n l=130.00n ng=1 ad=0 as=0 pd=0 ps=0 m=1
XX0 a_156_74_ RESET_B VSS VSS sg13_lv_nmos w=420.00n l=130.00n ng=1 ad=0 as=0 pd=0 ps=0 m=1
XX17 a_70_74_ D a_156_74_ VSS sg13_lv_nmos w=420.00n l=130.00n ng=1 ad=0 as=0 pd=0 ps=0 m=1
XX36 a_1499_149_ a_728_331_ a_1586_149_ VSS sg13_lv_nmos w=420.00n l=130.00n ng=1 ad=0 as=0 pd=0 ps=0 m=1
XX11 a_1499_149_ a_1800_291_ VSS VSS sg13_lv_nmos w=420.00n l=130.00n ng=1 ad=0 as=0 pd=0 ps=0 m=1
XX21 a_1974_74_ a_1586_149_ a_1800_291_ VSS sg13_lv_nmos w=420.00n l=130.00n ng=1 ad=0 as=0 pd=0 ps=0 m=1
XX14 VSS RESET_B a_1974_74_ VSS sg13_lv_nmos w=420.00n l=130.00n ng=1 ad=0 as=0 pd=0 ps=0 m=1
XX12 VSS CLK a_728_331_ VSS sg13_lv_nmos w=740.00n l=130.00n ng=1 ad=0 as=0 pd=0 ps=0 m=1
XX2 a_818_418_ a_728_331_ VSS VSS sg13_lv_nmos w=740.00n l=130.00n ng=1 ad=0 as=0 pd=0 ps=0 m=1
XX26 VSS a_298_294_ a_331_392_ VSS sg13_lv_nmos w=740.00n l=130.00n ng=1 ad=0 as=0 pd=0 ps=0 m=1
XX8 a_1586_149_ a_818_418_ a_331_392_ VSS sg13_lv_nmos w=740.00n l=130.00n ng=1 ad=0 as=0 pd=0 ps=0 m=1
XX1 a_70_74_ a_728_331_ a_298_294_ VSS sg13_lv_nmos w=420.00n l=130.00n ng=1 ad=0 as=0 pd=0 ps=0 m=1
XX18 Q_N a_1586_149_ VSS VSS sg13_lv_nmos w=740.00n l=130.00n ng=1 ad=0 as=0 pd=0 ps=0 m=1
XX16 VSS a_1586_149_ Q_N VSS sg13_lv_nmos w=740.00n l=130.00n ng=1 ad=0 as=0 pd=0 ps=0 m=1
XX9 VSS a_1586_149_ a_2363_352_ VSS sg13_lv_nmos w=640.00n l=130.00n ng=1 ad=0 as=0 pd=0 ps=0 m=1
XX10 Q a_2363_352_ VSS VSS sg13_lv_nmos w=740.00n l=130.00n ng=1 ad=0 as=0 pd=0 ps=0 m=1
XX7 VSS a_2363_352_ Q VSS sg13_lv_nmos w=740.00n l=130.00n ng=1 ad=0 as=0 pd=0 ps=0 m=1
.ends
* End of subcircuit definition.

* Library name: sg13g2_stdcell
* Cell name: sg13g2_dlygate4sd1_1
* View name: schematic
.subckt sg13g2_dlygate4sd1_1 A VDD VSS X
XX0 VDD a_405_138_ X VDD sg13_lv_pmos w=1.12e-06 l=130.00n ng=1 ad=0 as=0 pd=0 ps=0 m=1
XX1 VDD a_28_74_ a_286_392_ VDD sg13_lv_pmos w=1.000u l=130.00n ng=1 ad=0 as=0 pd=0 ps=0 m=1
XX4 a_405_138_ a_286_392_ VDD VDD sg13_lv_pmos w=1.000u l=130.00n ng=1 ad=0 as=0 pd=0 ps=0 m=1
XX5 a_28_74_ A VDD VDD sg13_lv_pmos w=420.00n l=130.00n ng=1 ad=0 as=0 pd=0 ps=0 m=1
XX2 a_28_74_ A VSS VSS sg13_lv_nmos w=420.00n l=130.00n ng=1 ad=0 as=0 pd=0 ps=0 m=1
XX3 VSS a_405_138_ X VSS sg13_lv_nmos w=740.00n l=130.00n ng=1 ad=0 as=0 pd=0 ps=0 m=1
XX6 a_405_138_ a_286_392_ VSS VSS sg13_lv_nmos w=420.00n l=130.00n ng=1 ad=0 as=0 pd=0 ps=0 m=1
XX7 VSS a_28_74_ a_286_392_ VSS sg13_lv_nmos w=420.00n l=130.00n ng=1 ad=0 as=0 pd=0 ps=0 m=1
.ends
* End of subcircuit definition.

* Library name: sg13g2_stdcell
* Cell name: sg13g2_dlygate4sd2_1
* View name: schematic
.subckt sg13g2_dlygate4sd2_1 A VDD VSS X
XX0 VDD a_405_138_ X VDD sg13_lv_pmos w=1.12e-06 l=130.00n ng=1 ad=0 as=0 pd=0 ps=0 m=1
XX1 VDD a_28_74_ a_288_74_ VDD sg13_lv_pmos w=1.000u l=250.00n ng=1 ad=0 as=0 pd=0 ps=0 m=1
XX2 a_405_138_ a_288_74_ VDD VDD sg13_lv_pmos w=1.000u l=250.00n ng=1 ad=0 as=0 pd=0 ps=0 m=1
XX6 a_28_74_ A VDD VDD sg13_lv_pmos w=420.00n l=130.00n ng=1 ad=0 as=0 pd=0 ps=0 m=1
XX3 VSS a_28_74_ a_288_74_ VSS sg13_lv_nmos w=420.00n l=180.00n ng=1 ad=0 as=0 pd=0 ps=0 m=1
XX4 a_28_74_ A VSS VSS sg13_lv_nmos w=420.00n l=130.00n ng=1 ad=0 as=0 pd=0 ps=0 m=1
XX5 VSS a_405_138_ X VSS sg13_lv_nmos w=740.00n l=130.00n ng=1 ad=0 as=0 pd=0 ps=0 m=1
XX7 a_405_138_ a_288_74_ VSS VSS sg13_lv_nmos w=420.00n l=180.00n ng=1 ad=0 as=0 pd=0 ps=0 m=1
.ends
* End of subcircuit definition.

* Library name: sg13g2_stdcell
* Cell name: sg13g2_dlygate4sd3_1
* View name: schematic
.subckt sg13g2_dlygate4sd3_1 A VDD VSS X
XX0 a_405_138_ a_289_74_ VDD VDD sg13_lv_pmos w=1.000u l=500.0n ng=1 ad=0 as=0 pd=0 ps=0 m=1
XX1 VDD a_405_138_ X VDD sg13_lv_pmos w=1.12e-06 l=130.00n ng=1 ad=0 as=0 pd=0 ps=0 m=1
XX6 a_28_74_ A VDD VDD sg13_lv_pmos w=420.00n l=130.00n ng=1 ad=0 as=0 pd=0 ps=0 m=1
XX7 VDD a_28_74_ a_289_74_ VDD sg13_lv_pmos w=1.000u l=500.0n ng=1 ad=0 as=0 pd=0 ps=0 m=1
XX2 VSS a_28_74_ a_289_74_ VSS sg13_lv_nmos w=420.00n l=500.0n ng=1 ad=0 as=0 pd=0 ps=0 m=1
XX3 a_405_138_ a_289_74_ VSS VSS sg13_lv_nmos w=420.00n l=500.0n ng=1 ad=0 as=0 pd=0 ps=0 m=1
XX4 a_28_74_ A VSS VSS sg13_lv_nmos w=420.00n l=130.00n ng=1 ad=0 as=0 pd=0 ps=0 m=1
XX5 VSS a_405_138_ X VSS sg13_lv_nmos w=740.00n l=130.00n ng=1 ad=0 as=0 pd=0 ps=0 m=1
.ends
* End of subcircuit definition.

* Library name: sg13g2_stdcell
* Cell name: sg13g2_inv_1
* View name: schematic
.subckt sg13g2_inv_1 A VDD VSS Y
XX1 VSS A Y VSS sg13_lv_nmos w=740.00n l=130.00n ng=1 ad=0 as=0 pd=0 ps=0 m=1
XX0 VDD A Y VDD sg13_lv_pmos w=1.12u l=130.00n ng=1 ad=0 as=0 pd=0 ps=0 m=1
.ends
* End of subcircuit definition.

* Library name: sg13g2_stdcell
* Cell name: sg13g2_inv_16
* View name: schematic
.subckt sg13g2_inv_16 A VDD VSS Y
XX30 Y A VSS VSS sg13_lv_nmos w=740.00n l=130.00n ng=1 ad=0 as=0 pd=0 ps=0 m=1
XX29 Y A VSS VSS sg13_lv_nmos w=740.00n l=130.00n ng=1 ad=0 as=0 pd=0 ps=0 m=1
XX27 VSS A Y VSS sg13_lv_nmos w=740.00n l=130.00n ng=1 ad=0 as=0 pd=0 ps=0 m=1
XX22 Y A VSS VSS sg13_lv_nmos w=740.00n l=130.00n ng=1 ad=0 as=0 pd=0 ps=0 m=1
XX21 Y A VSS VSS sg13_lv_nmos w=740.00n l=130.00n ng=1 ad=0 as=0 pd=0 ps=0 m=1
XX19 VSS A Y VSS sg13_lv_nmos w=740.00n l=130.00n ng=1 ad=0 as=0 pd=0 ps=0 m=1
XX18 Y A VSS VSS sg13_lv_nmos w=740.00n l=130.00n ng=1 ad=0 as=0 pd=0 ps=0 m=1
XX17 VSS A Y VSS sg13_lv_nmos w=740.00n l=130.00n ng=1 ad=0 as=0 pd=0 ps=0 m=1
XX16 VSS A Y VSS sg13_lv_nmos w=740.00n l=130.00n ng=1 ad=0 as=0 pd=0 ps=0 m=1
XX12 Y A VSS VSS sg13_lv_nmos w=740.00n l=130.00n ng=1 ad=0 as=0 pd=0 ps=0 m=1
XX10 VSS A Y VSS sg13_lv_nmos w=740.00n l=130.00n ng=1 ad=0 as=0 pd=0 ps=0 m=1
XX9 Y A VSS VSS sg13_lv_nmos w=740.00n l=130.00n ng=1 ad=0 as=0 pd=0 ps=0 m=1
XX8 VSS A Y VSS sg13_lv_nmos w=740.00n l=130.00n ng=1 ad=0 as=0 pd=0 ps=0 m=1
XX7 Y A VSS VSS sg13_lv_nmos w=740.00n l=130.00n ng=1 ad=0 as=0 pd=0 ps=0 m=1
XX6 VSS A Y VSS sg13_lv_nmos w=740.00n l=130.00n ng=1 ad=0 as=0 pd=0 ps=0 m=1
XX2 VSS A Y VSS sg13_lv_nmos w=740.00n l=130.00n ng=1 ad=0 as=0 pd=0 ps=0 m=1
XX31 Y A VDD VDD sg13_lv_pmos w=1.12e-06 l=130.00n ng=1 ad=0 as=0 pd=0 ps=0 m=1
XX28 Y A VDD VDD sg13_lv_pmos w=1.12e-06 l=130.00n ng=1 ad=0 as=0 pd=0 ps=0 m=1
XX26 Y A VDD VDD sg13_lv_pmos w=1.12e-06 l=130.00n ng=1 ad=0 as=0 pd=0 ps=0 m=1
XX25 VDD A Y VDD sg13_lv_pmos w=1.12e-06 l=130.00n ng=1 ad=0 as=0 pd=0 ps=0 m=1
XX24 VDD A Y VDD sg13_lv_pmos w=1.12e-06 l=130.00n ng=1 ad=0 as=0 pd=0 ps=0 m=1
XX23 Y A VDD VDD sg13_lv_pmos w=1.12e-06 l=130.00n ng=1 ad=0 as=0 pd=0 ps=0 m=1
XX20 Y A VDD VDD sg13_lv_pmos w=1.12e-06 l=130.00n ng=1 ad=0 as=0 pd=0 ps=0 m=1
XX15 VDD A Y VDD sg13_lv_pmos w=1.12e-06 l=130.00n ng=1 ad=0 as=0 pd=0 ps=0 m=1
XX14 VDD A Y VDD sg13_lv_pmos w=1.12e-06 l=130.00n ng=1 ad=0 as=0 pd=0 ps=0 m=1
XX13 VDD A Y VDD sg13_lv_pmos w=1.12e-06 l=130.00n ng=1 ad=0 as=0 pd=0 ps=0 m=1
XX11 VDD A Y VDD sg13_lv_pmos w=1.12e-06 l=130.00n ng=1 ad=0 as=0 pd=0 ps=0 m=1
XX5 VDD A Y VDD sg13_lv_pmos w=1.12e-06 l=130.00n ng=1 ad=0 as=0 pd=0 ps=0 m=1
XX4 Y A VDD VDD sg13_lv_pmos w=1.12e-06 l=130.00n ng=1 ad=0 as=0 pd=0 ps=0 m=1
XX3 Y A VDD VDD sg13_lv_pmos w=1.12e-06 l=130.00n ng=1 ad=0 as=0 pd=0 ps=0 m=1
XX1 Y A VDD VDD sg13_lv_pmos w=1.12e-06 l=130.00n ng=1 ad=0 as=0 pd=0 ps=0 m=1
XX0 VDD A Y VDD sg13_lv_pmos w=1.12e-06 l=130.00n ng=1 ad=0 as=0 pd=0 ps=0 m=1
.ends
* End of subcircuit definition.

* Library name: sg13g2_stdcell
* Cell name: sg13g2_inv_2
* View name: schematic
.subckt sg13g2_inv_2 A VDD VSS Y
XX0 Y A VSS VSS sg13_lv_nmos w=740.00n l=130.00n ng=1 ad=0 as=0 pd=0 ps=0 m=1
XX3 VSS A Y VSS sg13_lv_nmos w=740.00n l=130.00n ng=1 ad=0 as=0 pd=0 ps=0 m=1
XX1 VDD A Y VDD sg13_lv_pmos w=1.12e-06 l=130.00n ng=1 ad=0 as=0 pd=0 ps=0 m=1
XX2 Y A VDD VDD sg13_lv_pmos w=1.12e-06 l=130.00n ng=1 ad=0 as=0 pd=0 ps=0 m=1
.ends
* End of subcircuit definition.

* Library name: sg13g2_stdcell
* Cell name: sg13g2_inv_4
* View name: schematic
.subckt sg13g2_inv_4 A VDD VSS Y
XX0 VDD A Y VDD sg13_lv_pmos w=1.12e-06 l=130.00n ng=1 ad=0 as=0 pd=0 ps=0 m=1
XX1 Y A VDD VDD sg13_lv_pmos w=1.12e-06 l=130.00n ng=1 ad=0 as=0 pd=0 ps=0 m=1
XX2 Y A VDD VDD sg13_lv_pmos w=1.12e-06 l=130.00n ng=1 ad=0 as=0 pd=0 ps=0 m=1
XX6 VDD A Y VDD sg13_lv_pmos w=1.12e-06 l=130.00n ng=1 ad=0 as=0 pd=0 ps=0 m=1
XX3 VSS A Y VSS sg13_lv_nmos w=740.00n l=130.00n ng=1 ad=0 as=0 pd=0 ps=0 m=1
XX4 VSS A Y VSS sg13_lv_nmos w=740.00n l=130.00n ng=1 ad=0 as=0 pd=0 ps=0 m=1
XX5 Y A VSS VSS sg13_lv_nmos w=740.00n l=130.00n ng=1 ad=0 as=0 pd=0 ps=0 m=1
XX7 Y A VSS VSS sg13_lv_nmos w=740.00n l=130.00n ng=1 ad=0 as=0 pd=0 ps=0 m=1
.ends
* End of subcircuit definition.

* Library name: sg13g2_stdcell
* Cell name: sg13g2_inv_8
* View name: schematic
.subckt sg13g2_inv_8 A VDD VSS Y
XX0 VDD A Y VDD sg13_lv_pmos w=1.12e-06 l=130.00n ng=1 ad=0 as=0 pd=0 ps=0 m=1
XX1 Y A VDD VDD sg13_lv_pmos w=1.12e-06 l=130.00n ng=1 ad=0 as=0 pd=0 ps=0 m=1
XX5 Y A VDD VDD sg13_lv_pmos w=1.12e-06 l=130.00n ng=1 ad=0 as=0 pd=0 ps=0 m=1
XX6 VDD A Y VDD sg13_lv_pmos w=1.12e-06 l=130.00n ng=1 ad=0 as=0 pd=0 ps=0 m=1
XX7 Y A VDD VDD sg13_lv_pmos w=1.12e-06 l=130.00n ng=1 ad=0 as=0 pd=0 ps=0 m=1
XX9 VDD A Y VDD sg13_lv_pmos w=1.12e-06 l=130.00n ng=1 ad=0 as=0 pd=0 ps=0 m=1
XX13 Y A VDD VDD sg13_lv_pmos w=1.12e-06 l=130.00n ng=1 ad=0 as=0 pd=0 ps=0 m=1
XX14 VDD A Y VDD sg13_lv_pmos w=1.12e-06 l=130.00n ng=1 ad=0 as=0 pd=0 ps=0 m=1
XX2 Y A VSS VSS sg13_lv_nmos w=740.00n l=130.00n ng=1 ad=0 as=0 pd=0 ps=0 m=1
XX3 VSS A Y VSS sg13_lv_nmos w=740.00n l=130.00n ng=1 ad=0 as=0 pd=0 ps=0 m=1
XX4 Y A VSS VSS sg13_lv_nmos w=740.00n l=130.00n ng=1 ad=0 as=0 pd=0 ps=0 m=1
XX8 VSS A Y VSS sg13_lv_nmos w=740.00n l=130.00n ng=1 ad=0 as=0 pd=0 ps=0 m=1
XX10 Y A VSS VSS sg13_lv_nmos w=740.00n l=130.00n ng=1 ad=0 as=0 pd=0 ps=0 m=1
XX11 VSS A Y VSS sg13_lv_nmos w=740.00n l=130.00n ng=1 ad=0 as=0 pd=0 ps=0 m=1
XX12 Y A VSS VSS sg13_lv_nmos w=740.00n l=130.00n ng=1 ad=0 as=0 pd=0 ps=0 m=1
XX15 VSS A Y VSS sg13_lv_nmos w=740.00n l=130.00n ng=1 ad=0 as=0 pd=0 ps=0 m=1
.ends
* End of subcircuit definition.

* Library name: sg13g2_stdcell
* Cell name: sg13g2_mux2_1
* View name: schematic
.subckt sg13g2_mux2_1 A0 A1 S VDD VSS X
XX0 a_223_368_ A0 a_304_74_ VDD sg13_lv_pmos w=1.000u l=130.00n ng=1 ad=0 as=0 pd=0 ps=0 m=1
XX2 VDD S a_223_368_ VDD sg13_lv_pmos w=1.000u l=130.00n ng=1 ad=0 as=0 pd=0 ps=0 m=1
XX6 a_27_112_ S VDD VDD sg13_lv_pmos w=840.00n l=130.00n ng=1 ad=0 as=0 pd=0 ps=0 m=1
XX7 a_524_368_ a_27_112_ VDD VDD sg13_lv_pmos w=1.000u l=130.00n ng=1 ad=0 as=0 pd=0 ps=0 m=1
XX9 VDD a_304_74_ X VDD sg13_lv_pmos w=1.12e-06 l=130.00n ng=1 ad=0 as=0 pd=0 ps=0 m=1
XX11 a_304_74_ A1 a_524_368_ VDD sg13_lv_pmos w=1.000u l=130.00n ng=1 ad=0 as=0 pd=0 ps=0 m=1
XX1 VSS S a_226_74_ VSS sg13_lv_nmos w=740.00n l=130.00n ng=1 ad=0 as=0 pd=0 ps=0 m=1
XX3 a_443_74_ a_27_112_ VSS VSS sg13_lv_nmos w=740.00n l=130.00n ng=1 ad=0 as=0 pd=0 ps=0 m=1
XX4 VSS a_304_74_ X VSS sg13_lv_nmos w=740.00n l=130.00n ng=1 ad=0 as=0 pd=0 ps=0 m=1
XX5 a_304_74_ A0 a_443_74_ VSS sg13_lv_nmos w=740.00n l=130.00n ng=1 ad=0 as=0 pd=0 ps=0 m=1
XX8 a_226_74_ A1 a_304_74_ VSS sg13_lv_nmos w=740.00n l=130.00n ng=1 ad=0 as=0 pd=0 ps=0 m=1
XX10 a_27_112_ S VSS VSS sg13_lv_nmos w=550.00n l=130.00n ng=1 ad=0 as=0 pd=0 ps=0 m=1
.ends
* End of subcircuit definition.

* Library name: sg13g2_stdcell
* Cell name: sg13g2_a21o_1
* View name: schematic
.subckt sg13g2_a21o_1 A1 A2 B1 VDD VSS X
XX0 a_452_136_ A2 VSS VSS sg13_lv_nmos w=640.00n l=130.00n ng=1 ad=0 as=0 pd=0 ps=0 m=1
XX2 VSS B1 a_81_264_ VSS sg13_lv_nmos w=640.00n l=130.00n ng=1 ad=0 as=0 pd=0 ps=0 m=1
XX4 a_81_264_ A1 a_452_136_ VSS sg13_lv_nmos w=640.00n l=130.00n ng=1 ad=0 as=0 pd=0 ps=0 m=1
XX7 X a_81_264_ VSS VSS sg13_lv_nmos w=740.00n l=130.00n ng=1 ad=0 as=0 pd=0 ps=0 m=1
XX1 a_81_264_ B1 a_364_392_ VDD sg13_lv_pmos w=1.000u l=130.00n ng=1 ad=0 as=0 pd=0 ps=0 m=1
XX3 X a_81_264_ VDD VDD sg13_lv_pmos w=1.12e-06 l=130.00n ng=1 ad=0 as=0 pd=0 ps=0 m=1
XX5 a_364_392_ A1 VDD VDD sg13_lv_pmos w=1.000u l=130.00n ng=1 ad=0 as=0 pd=0 ps=0 m=1
XX6 VDD A2 a_364_392_ VDD sg13_lv_pmos w=1.000u l=130.00n ng=1 ad=0 as=0 pd=0 ps=0 m=1
.ends
* End of subcircuit definition.

* Library name: sg13g2_stdcell
* Cell name: sg13g2_mux4_1
* View name: schematic
.subckt sg13g2_mux4_1 A0 A1 A2 A3 S0 S1 VDD VSS X
XX2 VDD A0 a_255_341_ VDD sg13_lv_pmos w=1.000u l=130.00n ng=1 ad=0 as=0 pd=0 ps=0 m=1
XX21 a_255_341_ S0 a_342_74_ VDD sg13_lv_pmos w=1.000u l=130.00n ng=1 ad=0 as=0 pd=0 ps=0 m=1
XX14 a_537_341_ A1 VDD VDD sg13_lv_pmos w=1.000u l=130.00n ng=1 ad=0 as=0 pd=0 ps=0 m=1
XX6 a_342_74_ a_27_74_ a_537_341_ VDD sg13_lv_pmos w=1.000u l=130.00n ng=1 ad=0 as=0 pd=0 ps=0 m=1
XX24 VDD A2 a_763_341_ VDD sg13_lv_pmos w=1.000u l=130.00n ng=1 ad=0 as=0 pd=0 ps=0 m=1
XX17 a_763_341_ S0 a_846_74_ VDD sg13_lv_pmos w=1.000u l=130.00n ng=1 ad=0 as=0 pd=0 ps=0 m=1
XX20 a_1065_387_ A3 VDD VDD sg13_lv_pmos w=1.000u l=130.00n ng=1 ad=0 as=0 pd=0 ps=0 m=1
XX25 a_846_74_ a_27_74_ a_1065_387_ VDD sg13_lv_pmos w=1.000u l=130.00n ng=1 ad=0 as=0 pd=0 ps=0 m=1
XX16 VDD a_1338_125_ X VDD sg13_lv_pmos w=1.12e-06 l=130.00n ng=1 ad=0 as=0 pd=0 ps=0 m=1
XX10 a_27_74_ S0 VDD VDD sg13_lv_pmos w=1.000u l=130.00n ng=1 ad=0 as=0 pd=0 ps=0 m=1
XX11 a_1338_125_ a_1396_99_ a_846_74_ VDD sg13_lv_pmos w=1.000u l=130.00n ng=1 ad=0 as=0 pd=0 ps=0 m=1
XX5 a_342_74_ S1 a_1338_125_ VDD sg13_lv_pmos w=1.000u l=130.00n ng=1 ad=0 as=0 pd=0 ps=0 m=1
XX0 a_1396_99_ S1 VDD VDD sg13_lv_pmos w=1.000u l=130.00n ng=1 ad=0 as=0 pd=0 ps=0 m=1
XX1 a_264_74_ a_27_74_ a_342_74_ VSS sg13_lv_nmos w=640.00n l=130.00n ng=1 ad=0 as=0 pd=0 ps=0 m=1
XX8 VSS A0 a_264_74_ VSS sg13_lv_nmos w=640.00n l=130.00n ng=1 ad=0 as=0 pd=0 ps=0 m=1
XX3 a_342_74_ S0 a_450_74_ VSS sg13_lv_nmos w=640.00n l=130.00n ng=1 ad=0 as=0 pd=0 ps=0 m=1
XX22 a_450_74_ A1 VSS VSS sg13_lv_nmos w=640.00n l=130.00n ng=1 ad=0 as=0 pd=0 ps=0 m=1
XX4 a_768_74_ a_27_74_ a_846_74_ VSS sg13_lv_nmos w=640.00n l=130.00n ng=1 ad=0 as=0 pd=0 ps=0 m=1
XX12 VSS A2 a_768_74_ VSS sg13_lv_nmos w=640.00n l=130.00n ng=1 ad=0 as=0 pd=0 ps=0 m=1
XX9 a_846_74_ S0 a_979_74_ VSS sg13_lv_nmos w=640.00n l=130.00n ng=1 ad=0 as=0 pd=0 ps=0 m=1
XX15 a_979_74_ A3 VSS VSS sg13_lv_nmos w=640.00n l=130.00n ng=1 ad=0 as=0 pd=0 ps=0 m=1
XX13 VSS a_1338_125_ X VSS sg13_lv_nmos w=740.00n l=130.00n ng=1 ad=0 as=0 pd=0 ps=0 m=1
XX19 a_27_74_ S0 VSS VSS sg13_lv_nmos w=640.00n l=130.00n ng=1 ad=0 as=0 pd=0 ps=0 m=1
XX7 a_846_74_ S1 a_1338_125_ VSS sg13_lv_nmos w=640.00n l=130.00n ng=1 ad=0 as=0 pd=0 ps=0 m=1
XX18 a_1338_125_ a_1396_99_ a_342_74_ VSS sg13_lv_nmos w=640.00n l=130.00n ng=1 ad=0 as=0 pd=0 ps=0 m=1
XX23 a_1396_99_ S1 VSS VSS sg13_lv_nmos w=640.00n l=130.00n ng=1 ad=0 as=0 pd=0 ps=0 m=1
.ends
* End of subcircuit definition.

* Library name: sg13g2_stdcell
* Cell name: sg13g2_nand2_1
* View name: schematic
.subckt sg13g2_nand2_1 A B VDD VSS Y
XX0 VDD B Y VDD sg13_lv_pmos w=1.12e-06 l=130.00n ng=1 ad=0 as=0 pd=0 ps=0 m=1
XX1 Y A VDD VDD sg13_lv_pmos w=1.12e-06 l=130.00n ng=1 ad=0 as=0 pd=0 ps=0 m=1
XX2 a_117_74_ A Y VSS sg13_lv_nmos w=740.00n l=130.00n ng=1 ad=0 as=0 pd=0 ps=0 m=1
XX3 VSS B a_117_74_ VSS sg13_lv_nmos w=740.00n l=130.00n ng=1 ad=0 as=0 pd=0 ps=0 m=1
.ends
* End of subcircuit definition.

* Library name: sg13g2_stdcell
* Cell name: sg13g2_nand2b_1
* View name: schematic
.subckt sg13g2_nand2b_1 A_N B VDD VSS Y
XX0 Y a_27_112_ VDD VDD sg13_lv_pmos w=1.12e-06 l=130.00n ng=1 ad=0 as=0 pd=0 ps=0 m=1
XX1 a_27_112_ A_N VDD VDD sg13_lv_pmos w=840.00n l=130.00n ng=1 ad=0 as=0 pd=0 ps=0 m=1
XX3 VDD B Y VDD sg13_lv_pmos w=1.12e-06 l=130.00n ng=1 ad=0 as=0 pd=0 ps=0 m=1
XX2 a_269_74_ a_27_112_ Y VSS sg13_lv_nmos w=740.00n l=130.00n ng=1 ad=0 as=0 pd=0 ps=0 m=1
XX4 a_27_112_ A_N VSS VSS sg13_lv_nmos w=550.00n l=130.00n ng=1 ad=0 as=0 pd=0 ps=0 m=1
XX5 VSS B a_269_74_ VSS sg13_lv_nmos w=740.00n l=130.00n ng=1 ad=0 as=0 pd=0 ps=0 m=1
.ends
* End of subcircuit definition.

* Library name: sg13g2_stdcell
* Cell name: sg13g2_nand3b_1
* View name: schematic
.subckt sg13g2_nand3b_1 A_N B C VDD VSS Y
XX0 a_27_116_ A_N VDD VDD sg13_lv_pmos w=840.00n l=130.00n ng=1 ad=0 as=0 pd=0 ps=0 m=1
XX1 Y B VDD VDD sg13_lv_pmos w=1.12e-06 l=130.00n ng=1 ad=0 as=0 pd=0 ps=0 m=1
XX2 VDD a_27_116_ Y VDD sg13_lv_pmos w=1.12e-06 l=130.00n ng=1 ad=0 as=0 pd=0 ps=0 m=1
XX6 VDD C Y VDD sg13_lv_pmos w=1.12e-06 l=130.00n ng=1 ad=0 as=0 pd=0 ps=0 m=1
XX3 a_269_78_ B a_347_78_ VSS sg13_lv_nmos w=740.00n l=130.00n ng=1 ad=0 as=0 pd=0 ps=0 m=1
XX4 a_347_78_ a_27_116_ Y VSS sg13_lv_nmos w=740.00n l=130.00n ng=1 ad=0 as=0 pd=0 ps=0 m=1
XX5 a_27_116_ A_N VSS VSS sg13_lv_nmos w=550.00n l=130.00n ng=1 ad=0 as=0 pd=0 ps=0 m=1
XX7 VSS C a_269_78_ VSS sg13_lv_nmos w=740.00n l=130.00n ng=1 ad=0 as=0 pd=0 ps=0 m=1
.ends
* End of subcircuit definition.

* Library name: sg13g2_stdcell
* Cell name: sg13g2_nor2_1
* View name: schematic
.subckt sg13g2_nor2_1 A B VDD VSS Y
XX0 Y B VSS VSS sg13_lv_nmos w=740.00n l=130.00n ng=1 ad=0 as=0 pd=0 ps=0 m=1
XX3 VSS A Y VSS sg13_lv_nmos w=740.00n l=130.00n ng=1 ad=0 as=0 pd=0 ps=0 m=1
XX1 VDD A a_116_368_ VDD sg13_lv_pmos w=1.12e-06 l=130.00n ng=1 ad=0 as=0 pd=0 ps=0 m=1
XX2 a_116_368_ B Y VDD sg13_lv_pmos w=1.12e-06 l=130.00n ng=1 ad=0 as=0 pd=0 ps=0 m=1
.ends
* End of subcircuit definition.

* Library name: sg13g2_stdcell
* Cell name: sg13g2_nor3_1
* View name: schematic
.subckt sg13g2_nor3_1 A B C VDD VSS Y
XX0 a_114_368_ B a_198_368_ VDD sg13_lv_pmos w=1.12e-06 l=130.00n ng=1 ad=0 as=0 pd=0 ps=0 m=1
XX2 VDD A a_114_368_ VDD sg13_lv_pmos w=1.12e-06 l=130.00n ng=1 ad=0 as=0 pd=0 ps=0 m=1
XX3 a_198_368_ C Y VDD sg13_lv_pmos w=1.12e-06 l=130.00n ng=1 ad=0 as=0 pd=0 ps=0 m=1
XX1 Y B VSS VSS sg13_lv_nmos w=740.00n l=130.00n ng=1 ad=0 as=0 pd=0 ps=0 m=1
XX4 VSS A Y VSS sg13_lv_nmos w=740.00n l=130.00n ng=1 ad=0 as=0 pd=0 ps=0 m=1
XX5 VSS C Y VSS sg13_lv_nmos w=740.00n l=130.00n ng=1 ad=0 as=0 pd=0 ps=0 m=1
.ends
* End of subcircuit definition.

* Library name: sg13g2_stdcell
* Cell name: sg13g2_nor4_1
* View name: schematic
.subckt sg13g2_nor4_1 A B C D VDD VSS Y
XX0 VDD A a_144_368_ VDD sg13_lv_pmos w=1.12e-06 l=130.00n ng=1 ad=0 as=0 pd=0 ps=0 m=1
XX5 a_144_368_ B a_228_368_ VDD sg13_lv_pmos w=1.12e-06 l=130.00n ng=1 ad=0 as=0 pd=0 ps=0 m=1
XX6 a_228_368_ C a_342_368_ VDD sg13_lv_pmos w=1.12e-06 l=130.00n ng=1 ad=0 as=0 pd=0 ps=0 m=1
XX7 a_342_368_ D Y VDD sg13_lv_pmos w=1.12e-06 l=130.00n ng=1 ad=0 as=0 pd=0 ps=0 m=1
XX1 VSS C Y VSS sg13_lv_nmos w=740.00n l=130.00n ng=1 ad=0 as=0 pd=0 ps=0 m=1
XX2 VSS A Y VSS sg13_lv_nmos w=740.00n l=130.00n ng=1 ad=0 as=0 pd=0 ps=0 m=1
XX3 Y D VSS VSS sg13_lv_nmos w=740.00n l=130.00n ng=1 ad=0 as=0 pd=0 ps=0 m=1
XX4 Y B VSS VSS sg13_lv_nmos w=740.00n l=130.00n ng=1 ad=0 as=0 pd=0 ps=0 m=1
.ends
* End of subcircuit definition.

* Library name: sg13g2_stdcell
* Cell name: sg13g2_or2_1
* View name: schematic
.subckt sg13g2_or2_1 A B VDD VSS X
XP0 net2 B net3 VDD sg13_lv_pmos w=840.00n l=130.00n ng=1 ad=0 as=0 pd=0 ps=0 m=1
XP1 net3 A VDD VDD sg13_lv_pmos w=840.00n l=130.00n ng=1 ad=0 as=0 pd=0 ps=0 m=1
XP2 X net2 VDD VDD sg13_lv_pmos w=1.12e-06 l=130.00n ng=1 ad=0 as=0 pd=0 ps=0 m=1
XN0 net2 B VSS VSS sg13_lv_nmos w=550.00n l=130.00n ng=1 ad=0 as=0 pd=0 ps=0 m=1
XN1 net2 A VSS VSS sg13_lv_nmos w=550.00n l=130.00n ng=1 ad=0 as=0 pd=0 ps=0 m=1
XN2 X net2 VSS VSS sg13_lv_nmos w=740.00n l=130.00n ng=1 ad=0 as=0 pd=0 ps=0 m=1
.ends
* End of subcircuit definition.

* Library name: sg13g2_stdcell
* Cell name: sg13g2_or3_1
* View name: schematic
.subckt sg13g2_or3_1 A B C VDD VSS X
XX0 a_27_74_ A VSS VSS sg13_lv_nmos w=550.00n l=130.00n ng=1 ad=0 as=0 pd=0 ps=0 m=1
XX1 VSS a_27_74_ X VSS sg13_lv_nmos w=740.00n l=130.00n ng=1 ad=0 as=0 pd=0 ps=0 m=1
XX6 a_27_74_ C VSS VSS sg13_lv_nmos w=550.00n l=130.00n ng=1 ad=0 as=0 pd=0 ps=0 m=1
XX7 VSS B a_27_74_ VSS sg13_lv_nmos w=550.00n l=130.00n ng=1 ad=0 as=0 pd=0 ps=0 m=1
XX2 VDD a_27_74_ X VDD sg13_lv_pmos w=1.12e-06 l=130.00n ng=1 ad=0 as=0 pd=0 ps=0 m=1
XX3 a_27_74_ C a_116_368_ VDD sg13_lv_pmos w=1.000u l=130.00n ng=1 ad=0 as=0 pd=0 ps=0 m=1
XX4 a_116_368_ B a_200_368_ VDD sg13_lv_pmos w=1.000u l=130.00n ng=1 ad=0 as=0 pd=0 ps=0 m=1
XX5 a_200_368_ A VDD VDD sg13_lv_pmos w=1.000u l=130.00n ng=1 ad=0 as=0 pd=0 ps=0 m=1
.ends
* End of subcircuit definition.

* Library name: sg13g2_stdcell
* Cell name: sg13g2_or4_1
* View name: schematic
.subckt sg13g2_or4_1 A B C D VDD VSS X
XN4 X net1 VSS VSS sg13_lv_nmos w=740.00n l=130.00n ng=1 ad=0 as=0 pd=0 ps=0 m=1
XN3 net1 A VSS VSS sg13_lv_nmos w=550.00n l=130.00n ng=1 ad=0 as=0 pd=0 ps=0 m=1
XN2 net1 B VSS VSS sg13_lv_nmos w=550.00n l=130.00n ng=1 ad=0 as=0 pd=0 ps=0 m=1
XN1 net1 C VSS VSS sg13_lv_nmos w=550.00n l=130.00n ng=1 ad=0 as=0 pd=0 ps=0 m=1
XN0 net1 D VSS VSS sg13_lv_nmos w=550.00n l=130.00n ng=1 ad=0 as=0 pd=0 ps=0 m=1
XP4 net4 D VDD VDD sg13_lv_pmos w=1.000u l=130.00n ng=1 ad=3.4e-13 as=3.4e-13 pd=2.68e-06 ps=2.68e-06 m=1
XP3 net3 C net4 VDD sg13_lv_pmos w=1.000u l=130.00n ng=1 ad=3.4e-13 as=3.4e-13 pd=2.68e-06 ps=2.68e-06 m=1
XP2 net2 B net3 VDD sg13_lv_pmos w=1.000u l=130.00n ng=1 ad=3.4e-13 as=3.4e-13 pd=2.68e-06 ps=2.68e-06 m=1
XP1 net1 A net2 VDD sg13_lv_pmos w=1.000u l=130.00n ng=1 ad=3.4e-13 as=3.4e-13 pd=2.68e-06 ps=2.68e-06 m=1
XP0 X net1 VDD VDD sg13_lv_pmos w=1.12u l=130.00n ng=1 ad=0 as=0 pd=0 ps=0 m=1
.ends
* End of subcircuit definition.

* Library name: sg13g2_stdcell
* Cell name: sg13g2_xnor2_1
* View name: schematic
.subckt sg13g2_xnor2_1 A B VDD VSS Y
XX0 a_376_368_ B Y VDD sg13_lv_pmos w=1.12e-06 l=130.00n ng=1 ad=0 as=0 pd=0 ps=0 m=1
XX1 Y a_138_385_ VDD VDD sg13_lv_pmos w=1.12e-06 l=130.00n ng=1 ad=0 as=0 pd=0 ps=0 m=1
XX2 a_138_385_ B VDD VDD sg13_lv_pmos w=840.00n l=130.00n ng=1 ad=0 as=0 pd=0 ps=0 m=1
XX3 VDD A a_138_385_ VDD sg13_lv_pmos w=840.00n l=130.00n ng=1 ad=0 as=0 pd=0 ps=0 m=1